
**** 10/16/15 16:38:09 ***** PSpice 16.6.0 (October 2012) ***** ID# 0 ********

 ** Profile: "TEAMG_SEQUENCE-RECOGNITION_SIM-SEQUENCER_SIMULATION"  [ \\ugsamba\ja6g14\Documents\Year 2\D2\sequence\OrCAD\teamg_orcad


 ****     CIRCUIT DESCRIPTION


******************************************************************************




** Creating circuit file "SEQUENCER_SIMULATION.cir" 
** WARNING: THIS AUTOMATICALLY GENERATED FILE MAY BE OVERWRITTEN BY SUBSEQUENT SIMULATIONS

*Libraries: 
* Profile Libraries :
* Local Libraries :
.LIB "//ugsamba/ja6g14/Documents/Year 2/D2/D2.lib" 
* From [PSPICE NETLIST] section of C:\Users\ja6g14\AppData\Local\Temp\16.6.0/PSpice.ini file:
.lib "nom.lib" 

*Analysis directives: 
.TRAN  0 150ns 0 
.OPTIONS ADVCONV
.PROBE64 V(alias(*)) I(alias(*)) W(alias(*)) D(alias(*)) NOISE(alias(*)) 
.INC "..\TEAMG_SEQUENCE-RECOGNITION_SIM.net" 



**** INCLUDING TEAMG_SEQUENCE-RECOGNITION_SIM.net ****
* source TEAMG_ORCAD
U_DataIn         STIM(1,1)
+ VDD GND
+ DATAIN 
+ IO_STM
+ IO_LEVEL=0
+  0n 0  
+ 2.5n 1  
+ 12.5n 0  
+ 22.5n 1 
+ 32.5n 1  
+ 42.5n 0  
+ 52.5n 1  
+ 62.5n 1  
+ 72.5n 0  
+ 82.5n 1  
+ 92.5n 1  
+ 102.5n 0 
U_N_RESET         STIM(1,1)
+ VDD GND
+ N_RESET 
+ IO_STM
+ IO_LEVEL=0
+  0n 1  
+ 1.25n 0  
+ 2n 1  
V_V1         VDD 0 3.3Vdc
V_V2         GND 0 0Vdc
X_TEAMG_SEQUENCE-RECOGNITION_U26         CLK TEAMG_SEQUENCE-RECOGNITION_D1 GND
+  TEAMG_SEQUENCE-RECOGNITION_Q1 TEAMG_SEQUENCE-RECOGNITION_-Q1 N_RESET VDD
+  DFC1_H 
X_TEAMG_SEQUENCE-RECOGNITION_Q1_Logic_U9         TEAMG_SEQUENCE-RECOGNITION_Q0
+  TEAMG_SEQUENCE-RECOGNITION_-Q1 TEAMG_SEQUENCE-RECOGNITION_Q2
+  TEAMG_SEQUENCE-RECOGNITION_N06197 GND
+  TEAMG_SEQUENCE-RECOGNITION_Q1_Logic_N07811 VDD NAND41_H 
X_TEAMG_SEQUENCE-RECOGNITION_Q1_Logic_U20        
+  TEAMG_SEQUENCE-RECOGNITION_Q1_Logic_N077331 DATAIN GND
+  TEAMG_SEQUENCE-RECOGNITION_Q1_Logic_N08908 VDD NAND21_H 
X_TEAMG_SEQUENCE-RECOGNITION_Q1_Logic_U15         TEAMG_SEQUENCE-RECOGNITION_Q1
+  DATAIN TEAMG_SEQUENCE-RECOGNITION_N06197 TEAMG_SEQUENCE-RECOGNITION_-Q0 GND
+  TEAMG_SEQUENCE-RECOGNITION_Q1_Logic_N03949 VDD NAND41_H 
X_TEAMG_SEQUENCE-RECOGNITION_Q1_Logic_U23        
+  TEAMG_SEQUENCE-RECOGNITION_Q1_Logic_N08478 DATAIN GND
+  TEAMG_SEQUENCE-RECOGNITION_Q1_Logic_N08912 VDD NAND21_H 
X_TEAMG_SEQUENCE-RECOGNITION_Q1_Logic_U21        
+  TEAMG_SEQUENCE-RECOGNITION_Q1_Logic_N04051 GND
+  TEAMG_SEQUENCE-RECOGNITION_Q1_Logic_N08478 VDD INV1_H 
X_TEAMG_SEQUENCE-RECOGNITION_Q1_Logic_U17        
+  TEAMG_SEQUENCE-RECOGNITION_-Q0 TEAMG_SEQUENCE-RECOGNITION_N06197
+  TEAMG_SEQUENCE-RECOGNITION_Q2 TEAMG_SEQUENCE-RECOGNITION_Q1 GND
+  TEAMG_SEQUENCE-RECOGNITION_Q1_Logic_N03921 VDD NAND41_H 
X_TEAMG_SEQUENCE-RECOGNITION_Q1_Logic_U5        
+  TEAMG_SEQUENCE-RECOGNITION_Q1_Logic_N03921
+  TEAMG_SEQUENCE-RECOGNITION_Q1_Logic_N03949
+  TEAMG_SEQUENCE-RECOGNITION_Q1_Logic_N03941
+  TEAMG_SEQUENCE-RECOGNITION_Q1_Logic_N03929 GND TEAMG_SEQUENCE-RECOGNITION_D1
+  VDD NAND41_H 
X_TEAMG_SEQUENCE-RECOGNITION_Q1_Logic_U16        
+  TEAMG_SEQUENCE-RECOGNITION_N04888 TEAMG_SEQUENCE-RECOGNITION_N06197
+  TEAMG_SEQUENCE-RECOGNITION_-Q2 TEAMG_SEQUENCE-RECOGNITION_Q0 GND
+  TEAMG_SEQUENCE-RECOGNITION_Q1_Logic_N03941 VDD NAND41_H 
X_TEAMG_SEQUENCE-RECOGNITION_Q1_Logic_U12         MATCHALL
+  TEAMG_SEQUENCE-RECOGNITION_-Q2 TEAMG_SEQUENCE-RECOGNITION_-Q1
+  TEAMG_SEQUENCE-RECOGNITION_-Q0 GND TEAMG_SEQUENCE-RECOGNITION_Q1_Logic_N04051
+  VDD NAND41_H 
X_TEAMG_SEQUENCE-RECOGNITION_Q1_Logic_U18        
+  TEAMG_SEQUENCE-RECOGNITION_Q1_Logic_N07811 GND
+  TEAMG_SEQUENCE-RECOGNITION_Q1_Logic_N077331 VDD INV1_H 
X_TEAMG_SEQUENCE-RECOGNITION_Q1_Logic_U24        
+  TEAMG_SEQUENCE-RECOGNITION_Q1_Logic_N08908
+  TEAMG_SEQUENCE-RECOGNITION_Q1_Logic_N08912 GND
+  TEAMG_SEQUENCE-RECOGNITION_Q1_Logic_N08904 VDD NAND21_H 
X_TEAMG_SEQUENCE-RECOGNITION_Q1_Logic_U25        
+  TEAMG_SEQUENCE-RECOGNITION_Q1_Logic_N08904 GND
+  TEAMG_SEQUENCE-RECOGNITION_Q1_Logic_N03929 VDD INV1_H 
X_TEAMG_SEQUENCE-RECOGNITION_U25         CLK TEAMG_SEQUENCE-RECOGNITION_D2 GND
+  TEAMG_SEQUENCE-RECOGNITION_Q2 TEAMG_SEQUENCE-RECOGNITION_-Q2 N_RESET VDD
+  DFC1_H 
X_TEAMG_SEQUENCE-RECOGNITION_Q2_Logic_U15        
+  TEAMG_SEQUENCE-RECOGNITION_N04888 TEAMG_SEQUENCE-RECOGNITION_Q2_Logic_N04316
+  GND TEAMG_SEQUENCE-RECOGNITION_Q2_Logic_N04278 VDD NOR21_H 
X_TEAMG_SEQUENCE-RECOGNITION_Q2_Logic_U28        
+  TEAMG_SEQUENCE-RECOGNITION_-Q2 TEAMG_SEQUENCE-RECOGNITION_Q1
+  TEAMG_SEQUENCE-RECOGNITION_Q0 DATAIN GND
+  TEAMG_SEQUENCE-RECOGNITION_Q2_Logic_N04641 VDD NAND41_H 
X_TEAMG_SEQUENCE-RECOGNITION_Q2_Logic_U30        
+  TEAMG_SEQUENCE-RECOGNITION_Q2_Logic_N08635 GND TEAMG_SEQUENCE-RECOGNITION_D2
+  VDD INV1_H 
X_TEAMG_SEQUENCE-RECOGNITION_Q2_Logic_U25         DATAIN
+  TEAMG_SEQUENCE-RECOGNITION_Q2 TEAMG_SEQUENCE-RECOGNITION_Q1
+  TEAMG_SEQUENCE-RECOGNITION_-Q0 GND TEAMG_SEQUENCE-RECOGNITION_Q2_Logic_N07852
+  VDD NAND41_H 
X_TEAMG_SEQUENCE-RECOGNITION_Q2_Logic_U14        
+  TEAMG_SEQUENCE-RECOGNITION_-Q2 TEAMG_SEQUENCE-RECOGNITION_-Q1 MATCHALL
+  TEAMG_SEQUENCE-RECOGNITION_-Q0 GND TEAMG_SEQUENCE-RECOGNITION_Q2_Logic_N04316
+  VDD NAND41_H 
X_TEAMG_SEQUENCE-RECOGNITION_Q2_Logic_U26         TEAMG_SEQUENCE-RECOGNITION_Q2
+  TEAMG_SEQUENCE-RECOGNITION_Q0 TEAMG_SEQUENCE-RECOGNITION_-Q1 DATAIN GND
+  TEAMG_SEQUENCE-RECOGNITION_Q2_Logic_N04619 VDD NAND41_H 
X_TEAMG_SEQUENCE-RECOGNITION_Q2_Logic_U29        
+  TEAMG_SEQUENCE-RECOGNITION_Q2_Logic_N04278
+  TEAMG_SEQUENCE-RECOGNITION_Q2_Logic_N04667 GND
+  TEAMG_SEQUENCE-RECOGNITION_Q2_Logic_N08635 VDD NOR21_H 
X_TEAMG_SEQUENCE-RECOGNITION_Q2_Logic_U20        
+  TEAMG_SEQUENCE-RECOGNITION_Q2_Logic_N07852
+  TEAMG_SEQUENCE-RECOGNITION_Q2_Logic_N04619
+  TEAMG_SEQUENCE-RECOGNITION_Q2_Logic_N04633
+  TEAMG_SEQUENCE-RECOGNITION_Q2_Logic_N04641 GND
+  TEAMG_SEQUENCE-RECOGNITION_Q2_Logic_N04667 VDD NAND41_H 
X_TEAMG_SEQUENCE-RECOGNITION_Q2_Logic_U27         TEAMG_SEQUENCE-RECOGNITION_Q2
+  TEAMG_SEQUENCE-RECOGNITION_-Q1 TEAMG_SEQUENCE-RECOGNITION_-Q0
+  TEAMG_SEQUENCE-RECOGNITION_N04888 GND
+  TEAMG_SEQUENCE-RECOGNITION_Q2_Logic_N04633 VDD NAND41_H 
X_TEAMG_SEQUENCE-RECOGNITION_Q0_Logic_U8         DATAIN
+  TEAMG_SEQUENCE-RECOGNITION_N06197 TEAMG_SEQUENCE-RECOGNITION_-Q0 GND
+  TEAMG_SEQUENCE-RECOGNITION_Q0_Logic_N04232 VDD NAND31_H 
X_TEAMG_SEQUENCE-RECOGNITION_Q0_Logic_U3        
+  TEAMG_SEQUENCE-RECOGNITION_Q0_Logic_N04232
+  TEAMG_SEQUENCE-RECOGNITION_Q0_Logic_N04344
+  TEAMG_SEQUENCE-RECOGNITION_Q0_Logic_N04259 GND TEAMG_SEQUENCE-RECOGNITION_D0
+  VDD NAND31_H 
X_TEAMG_SEQUENCE-RECOGNITION_Q0_Logic_U9        
+  TEAMG_SEQUENCE-RECOGNITION_N06197 DATAIN TEAMG_SEQUENCE-RECOGNITION_-Q1
+  TEAMG_SEQUENCE-RECOGNITION_-Q2 GND TEAMG_SEQUENCE-RECOGNITION_Q0_Logic_N04344
+  VDD NAND41_H 
X_TEAMG_SEQUENCE-RECOGNITION_Q0_Logic_U10        
+  TEAMG_SEQUENCE-RECOGNITION_N06197 TEAMG_SEQUENCE-RECOGNITION_Q2
+  TEAMG_SEQUENCE-RECOGNITION_-Q0 TEAMG_SEQUENCE-RECOGNITION_-Q1 GND
+  TEAMG_SEQUENCE-RECOGNITION_Q0_Logic_N04259 VDD NAND41_H 
X_TEAMG_SEQUENCE-RECOGNITION_U24         CLK TEAMG_SEQUENCE-RECOGNITION_D3 GND
+  MATCHALL TEAMG_SEQUENCE-RECOGNITION_N06197 N_RESET VDD DFC1_H 
X_TEAMG_SEQUENCE-RECOGNITION_U27         CLK TEAMG_SEQUENCE-RECOGNITION_D0 GND
+  TEAMG_SEQUENCE-RECOGNITION_Q0 TEAMG_SEQUENCE-RECOGNITION_-Q0 N_RESET VDD
+  DFC1_H 
X_TEAMG_SEQUENCE-RECOGNITION_U28         DATAIN GND
+  TEAMG_SEQUENCE-RECOGNITION_N04888 VDD INV1_H 
X_TEAMG_SEQUENCE-RECOGNITION_Q3_Logic_NOR41_H1         DATAIN
+  TEAMG_SEQUENCE-RECOGNITION_-Q0 TEAMG_SEQUENCE-RECOGNITION_-Q1
+  TEAMG_SEQUENCE-RECOGNITION_-Q2 GND TEAMG_SEQUENCE-RECOGNITION_D3 VDD NOR41_H 
U_DSTM1         STIM(1,1) $G_DPWR $G_DGND CLK IO_STM IO_LEVEL=0 
+ 0 0
+ +5n 1
+REPEAT FOREVER
+ +5n 0
+  +5n 1
+ ENDREPEAT

**** RESUMING SEQUENCER_SIMULATION.cir ****
.END


**** Generated AtoD and DtoA Interfaces ****

*
* Analog/Digital interface for node CLK
*
* Moving U_DSTM1:OUT1 from analog node CLK to new digital node CLK$DtoA
X$CLK_DtoA1
+ CLK$DtoA
+ CLK
+ $G_DPWR
+ $G_DGND
+ DtoA_STM
+       PARAMS: DRVH=   0      DRVL=   0      CAPACITANCE=   0     
*
* Analog/Digital interface for node N_RESET
*
* Moving U_N_RESET:OUT1 from analog node N_RESET to new digital node N_RESET$DtoA
X$N_RESET_DtoA1
+ N_RESET$DtoA
+ N_RESET
+ VDD
+ GND
+ DtoA_STM
+       PARAMS: DRVH=   0      DRVL=   0      CAPACITANCE=   0     
*
* Analog/Digital interface for node DATAIN
*
* Moving U_DataIn:OUT1 from analog node DATAIN to new digital node DATAIN$DtoA
X$DATAIN_DtoA1
+ DATAIN$DtoA
+ DATAIN
+ VDD
+ GND
+ DtoA_STM
+       PARAMS: DRVH=   0      DRVL=   0      CAPACITANCE=   0     
*
* Analog/Digital interface power supply subcircuits
*
X$DIGIFPWR 0 DIGIFPWR


INFO(ORPSIM-15454): Model MODN: Using BSIM VERSION 3.1 or lower

INFO(ORPSIM-15454): Model MODP: Using BSIM VERSION 3.1 or lower

**** 10/16/15 16:38:09 ***** PSpice 16.6.0 (October 2012) ***** ID# 0 ********

 ** Profile: "TEAMG_SEQUENCE-RECOGNITION_SIM-SEQUENCER_SIMULATION"  [ \\ugsamba\ja6g14\Documents\Year 2\D2\sequence\OrCAD\teamg_orcad


 ****     MOSFET MODEL PARAMETERS


******************************************************************************




               MODN            MODP            
               NMOS            PMOS            
       LEVEL    7               7            
           L  100.000000E-06  100.000000E-06 
           W  100.000000E-06  100.000000E-06 
         VTO     .4979          -.6915       
          KP  273.516300E-06  267.202200E-06 
       GAMMA    0               0            
      LAMBDA    0               0            
         RSH   70             129            
          IS    0               0            
          JS   10.000000E-06   90.000000E-06 
          PB     .69            1.02         
        PBSW     .69            1.02         
          CJ  940.000000E-06    1.360000E-03 
        CJSW  250.000000E-12  320.000000E-12 
          MJ     .34             .56         
        MJSW     .23             .43         
        CGSO  120.000000E-12   86.000000E-12 
        CGDO  130.000000E-12   86.000000E-12 
        CGBO  110.000000E-12  110.000000E-12 
         TOX    7.575000E-09    7.754000E-09 
          XJ  300.000000E-09  300.000000E-09 
       UCRIT   10.000000E+03   10.000000E+03 
       DELTA     .01442          .01         
          KF    5.100000E-27    8.500000E-27 
          AF    1.36            1.48         
      DIOMOD    2               2            
          K1     .50296          .59959      
          K2     .033985        -.06038      
        LETA    0               0            
        WETA    0               0            
          U0  475.8           148.2          
       XPART    1               1            
        VTH0     .4979          -.6915       
          K3   -1.136          11.03         
          W0  267.300000E-09  100.000000E-12 
         NLX  188.800000E-09  177.000000E-09 
        DVT0   50               1.65         
        DVT1    1.039            .3868       
          UA    4.705000E-12  539.400000E-12 
          UB    2.137000E-18    1.053000E-18 
          UC   10.000000E-21   10.000000E-21 
        VSAT  133.800000E+03  115.800000E+03 
        RDSW  344.9             1.033000E+03 
        VOFF    -.08925         -.117        
     NFACTOR     .4136          1.214        
        CDSC    0               2.589000E-03 
        PCLM     .6948          3.184        
      PDIBL1     .3571        100.000000E-06 
      PDIBL2    2.065000E-03   10.000000E-21 
       DROUT     .5              .5          
      PSCBE1  351.800000E+06    5.000000E+09 
      PSCBE2   74.910000E-06  100.000000E-06 
          A0    2.541            .585        
          A1    0               0            
          A2    1               1            
       NPEAK  261.100000E+15   92.400000E+15 
         LDD    0               0            
        LITL   82.568160E-09   83.538020E-09 
         KT1    -.3302          -.5403       
         UA1    0               0            
         UB1    0               0            
         UC1    0               0            
        KETA     .02032         -.0144       
        ETA0     .01415          .248        
        ETAB    -.1221         -3.917000E-03 
         K3B    -.4399          -.758        
        DVT2   -8.375000E-03     .01659      
       CDSCB    1.500000E-03  294.300000E-06 
         CIT  444.100000E-06                 
        DSUB     .5              .5          
         UTE   -1.8            -1.3          
      MOBMOD    1               1            
      NOIMOD    3               3            
       CDSCD    1.000000E-03  437.000000E-06 
         AGS     .2408           .2468       
       DVT0W     .1089           .1879       
       DVT1W   66.710000E+03   73.350000E+03 
       DVT2W    -.01352        -6.312000E-03 
        PRWG    0                .1477       
        PRWB    -.2416          -.09731      
     PDIBLCB     .3222          1            
          B0    4.301000E-09   88.320000E-09 
        CGSL  131.000000E-12  108.000000E-12 
        CGDL  131.000000E-12  108.000000E-12 
         CLC    1.000000E-15    1.000000E-15 
        LINT  -50.050000E-09  -71.300000E-09 
        WINT   94.030000E-09   34.490000E-09 
          WW  -12.970000E-15  189.400000E-18 
         WWN                    1.04         
         WWL   -9.411000E-21   -1.981000E-21 
         DLC   30.000000E-09   24.500000E-09 
         DWC   94.030000E-09   34.490000E-09 
          CF    0               0            
        NOIA   17.300000E+18    1.520000E+18 
        NOIB   70.000000E+03    7.750000E+03 
        NOIC -564.000000E-15  500.000000E-15 
         VTM     .025864         .025864     
     VERSION    3.1             3.1          
       PBSWG     .69            1.02         
       MJSWG     .23             .43         
       CJSWG  250.000000E-12  320.000000E-12 
       JTSCD   10.000000E-06   90.000000E-06 


**** 10/16/15 16:38:09 ***** PSpice 16.6.0 (October 2012) ***** ID# 0 ********

 ** Profile: "TEAMG_SEQUENCE-RECOGNITION_SIM-SEQUENCER_SIMULATION"  [ \\ugsamba\ja6g14\Documents\Year 2\D2\sequence\OrCAD\teamg_orcad


 ****     Digital Input MODEL PARAMETERS


******************************************************************************




               DINSTM          
      S0NAME 0               
       S0TSW  500.000000E-12 
       S0RLO     .5          
       S0RHI    1.000000E+03 
      S1NAME 1               
       S1TSW  500.000000E-12 
       S1RLO    1.000000E+03 
       S1RHI     .5          
      S2NAME X               
       S2TSW  500.000000E-12 
       S2RLO     .429        
       S2RHI    1.16         
      S3NAME R               
       S3TSW  500.000000E-12 
       S3RLO     .429        
       S3RHI    1.16         
      S4NAME F               
       S4TSW  500.000000E-12 
       S4RLO     .429        
       S4RHI    1.16         
      S5NAME Z               
       S5TSW  500.000000E-12 
       S5RLO    1.000000E+06 
       S5RHI    1.000000E+06 


**** 10/16/15 16:38:09 ***** PSpice 16.6.0 (October 2012) ***** ID# 0 ********

 ** Profile: "TEAMG_SEQUENCE-RECOGNITION_SIM-SEQUENCER_SIMULATION"  [ \\ugsamba\ja6g14\Documents\Year 2\D2\sequence\OrCAD\teamg_orcad


 ****     Digital IO  MODEL PARAMETERS


******************************************************************************




               IO_STM          
        DRVL    0            
        DRVH    0            
       DtoA1 DtoA_STM        
       DtoA2 DtoA_STM        
       DtoA3 DtoA_STM        
       DtoA4 DtoA_STM        
       TPWRT  100.000000E+03 


**** 10/16/15 16:38:09 ***** PSpice 16.6.0 (October 2012) ***** ID# 0 ********

 ** Profile: "TEAMG_SEQUENCE-RECOGNITION_SIM-SEQUENCER_SIMULATION"  [ \\ugsamba\ja6g14\Documents\Year 2\D2\sequence\OrCAD\teamg_orcad


 ****     INITIAL TRANSIENT SOLUTION       TEMPERATURE =   27.000 DEG C


******************************************************************************



 NODE   VOLTAGE     NODE   VOLTAGE     NODE   VOLTAGE     NODE   VOLTAGE


(  CLK)     .0025  (  GND)    0.0000  (  VDD)    3.3000  (DATAIN)     .0016     

($G_DGND)    0.0000                   ($G_DPWR)    5.0000                       

(N_RESET)    3.2984                   (MATCHALL) 5.670E-09                      

(TEAMG_SEQUENCE-RECOGNITION_D0) 14.44E-09                                       

(TEAMG_SEQUENCE-RECOGNITION_D1) 19.59E-09                                       

(TEAMG_SEQUENCE-RECOGNITION_D2) 5.670E-09                                       

(TEAMG_SEQUENCE-RECOGNITION_D3) 1.902E-09                                       

(TEAMG_SEQUENCE-RECOGNITION_Q0) 5.670E-09                                       

(TEAMG_SEQUENCE-RECOGNITION_Q1) 5.670E-09                                       

(TEAMG_SEQUENCE-RECOGNITION_Q2) 5.670E-09                                       

(TEAMG_SEQUENCE-RECOGNITION_-Q0)    3.3000                                      

(TEAMG_SEQUENCE-RECOGNITION_-Q1)    3.3000                                      

(TEAMG_SEQUENCE-RECOGNITION_-Q2)    3.3000                                      

(TEAMG_SEQUENCE-RECOGNITION_N04888)    3.3000                                   

(TEAMG_SEQUENCE-RECOGNITION_N06197)    3.3000                                   

(X_TEAMG_SEQUENCE-RECOGNITION_U24.1)    3.3000                                  

(X_TEAMG_SEQUENCE-RECOGNITION_U24.2) 12.16E-09                                  

(X_TEAMG_SEQUENCE-RECOGNITION_U24.3) 261.8E-12                                  

(X_TEAMG_SEQUENCE-RECOGNITION_U24.4)    3.3000                                  

(X_TEAMG_SEQUENCE-RECOGNITION_U24.5)    3.3000                                  

(X_TEAMG_SEQUENCE-RECOGNITION_U24.6)    2.6927                                  

(X_TEAMG_SEQUENCE-RECOGNITION_U24.7) 11.31E-09                                  

(X_TEAMG_SEQUENCE-RECOGNITION_U24.8) 33.86E-09                                  

(X_TEAMG_SEQUENCE-RECOGNITION_U24.9) 22.59E-09                                  

(X_TEAMG_SEQUENCE-RECOGNITION_U25.1)    3.3000                                  

(X_TEAMG_SEQUENCE-RECOGNITION_U25.2) 12.16E-09                                  

(X_TEAMG_SEQUENCE-RECOGNITION_U25.3) 261.8E-12                                  

(X_TEAMG_SEQUENCE-RECOGNITION_U25.4)    3.3000                                  

(X_TEAMG_SEQUENCE-RECOGNITION_U25.5)    3.3000                                  

(X_TEAMG_SEQUENCE-RECOGNITION_U25.6)    2.6927                                  

(X_TEAMG_SEQUENCE-RECOGNITION_U25.7) 11.31E-09                                  

(X_TEAMG_SEQUENCE-RECOGNITION_U25.8) 33.86E-09                                  

(X_TEAMG_SEQUENCE-RECOGNITION_U25.9) 22.59E-09                                  

(X_TEAMG_SEQUENCE-RECOGNITION_U26.1)    3.3000                                  

(X_TEAMG_SEQUENCE-RECOGNITION_U26.2) 12.16E-09                                  

(X_TEAMG_SEQUENCE-RECOGNITION_U26.3) 261.8E-12                                  

(X_TEAMG_SEQUENCE-RECOGNITION_U26.4)    3.3000                                  

(X_TEAMG_SEQUENCE-RECOGNITION_U26.5)    3.3000                                  

(X_TEAMG_SEQUENCE-RECOGNITION_U26.6)    2.6927                                  

(X_TEAMG_SEQUENCE-RECOGNITION_U26.7) 11.31E-09                                  

(X_TEAMG_SEQUENCE-RECOGNITION_U26.8) 33.86E-09                                  

(X_TEAMG_SEQUENCE-RECOGNITION_U26.9) 22.59E-09                                  

(X_TEAMG_SEQUENCE-RECOGNITION_U27.1)    3.3000                                  

(X_TEAMG_SEQUENCE-RECOGNITION_U27.2) 12.16E-09                                  

(X_TEAMG_SEQUENCE-RECOGNITION_U27.3) 261.8E-12                                  

(X_TEAMG_SEQUENCE-RECOGNITION_U27.4)    3.3000                                  

(X_TEAMG_SEQUENCE-RECOGNITION_U27.5)    3.3000                                  

(X_TEAMG_SEQUENCE-RECOGNITION_U27.6)    2.6927                                  

(X_TEAMG_SEQUENCE-RECOGNITION_U27.7) 11.31E-09                                  

(X_TEAMG_SEQUENCE-RECOGNITION_U27.8) 33.86E-09                                  

(X_TEAMG_SEQUENCE-RECOGNITION_U27.9) 22.59E-09                                  

(X_TEAMG_SEQUENCE-RECOGNITION_U24.10)    3.3000                                 

(X_TEAMG_SEQUENCE-RECOGNITION_U24.11)    2.6927                                 

(X_TEAMG_SEQUENCE-RECOGNITION_U24.12)    3.3000                                 

(X_TEAMG_SEQUENCE-RECOGNITION_U25.10)    3.3000                                 

(X_TEAMG_SEQUENCE-RECOGNITION_U25.11)    2.6927                                 

(X_TEAMG_SEQUENCE-RECOGNITION_U25.12)    3.3000                                 

(X_TEAMG_SEQUENCE-RECOGNITION_U26.10)    3.3000                                 

(X_TEAMG_SEQUENCE-RECOGNITION_U26.11)    2.6927                                 

(X_TEAMG_SEQUENCE-RECOGNITION_U26.12)    3.3000                                 

(X_TEAMG_SEQUENCE-RECOGNITION_U27.10)    3.3000                                 

(X_TEAMG_SEQUENCE-RECOGNITION_U27.11)    2.6927                                 

(X_TEAMG_SEQUENCE-RECOGNITION_U27.12)    3.3000                                 

(TEAMG_SEQUENCE-RECOGNITION_Q0_Logic_N04232)    3.3000                          

(TEAMG_SEQUENCE-RECOGNITION_Q0_Logic_N04259)    3.3000                          

(TEAMG_SEQUENCE-RECOGNITION_Q0_Logic_N04344)    3.3000                          

(TEAMG_SEQUENCE-RECOGNITION_Q1_Logic_N03921)    3.3000                          

(TEAMG_SEQUENCE-RECOGNITION_Q1_Logic_N03929)    3.3000                          

(TEAMG_SEQUENCE-RECOGNITION_Q1_Logic_N03941)    3.3000                          

(TEAMG_SEQUENCE-RECOGNITION_Q1_Logic_N03949)    3.3000                          

(TEAMG_SEQUENCE-RECOGNITION_Q1_Logic_N04051)    3.3000                          

(TEAMG_SEQUENCE-RECOGNITION_Q1_Logic_N07811)    3.3000                          

(TEAMG_SEQUENCE-RECOGNITION_Q1_Logic_N08478) 5.670E-09                          

(TEAMG_SEQUENCE-RECOGNITION_Q1_Logic_N08904) 10.99E-09                          

(TEAMG_SEQUENCE-RECOGNITION_Q1_Logic_N08908)    3.3000                          

(TEAMG_SEQUENCE-RECOGNITION_Q1_Logic_N08912)    3.3000                          

(TEAMG_SEQUENCE-RECOGNITION_Q2_Logic_N04278) 2.840E-09                          

(TEAMG_SEQUENCE-RECOGNITION_Q2_Logic_N04316)    3.3000                          

(TEAMG_SEQUENCE-RECOGNITION_Q2_Logic_N04619)    3.3000                          

(TEAMG_SEQUENCE-RECOGNITION_Q2_Logic_N04633)    3.3000                          

(TEAMG_SEQUENCE-RECOGNITION_Q2_Logic_N04641)    3.3000                          

(TEAMG_SEQUENCE-RECOGNITION_Q2_Logic_N04667) 19.59E-09                          

(TEAMG_SEQUENCE-RECOGNITION_Q2_Logic_N07852)    3.3000                          

(TEAMG_SEQUENCE-RECOGNITION_Q2_Logic_N08635)    3.3000                          

(X_TEAMG_SEQUENCE-RECOGNITION_Q0_Logic_U3.1) 4.812E-09                          

(X_TEAMG_SEQUENCE-RECOGNITION_Q0_Logic_U3.2) 9.624E-09                          

(X_TEAMG_SEQUENCE-RECOGNITION_Q0_Logic_U8.1) 126.7E-12                          

(X_TEAMG_SEQUENCE-RECOGNITION_Q0_Logic_U8.2) 253.4E-12                          

(X_TEAMG_SEQUENCE-RECOGNITION_Q0_Logic_U9.1) 94.90E-12                          

(X_TEAMG_SEQUENCE-RECOGNITION_Q0_Logic_U9.2) 189.8E-12                          

(X_TEAMG_SEQUENCE-RECOGNITION_Q0_Logic_U9.3)    2.7029                          

(X_TEAMG_SEQUENCE-RECOGNITION_Q1_Logic_U5.1) 4.897E-09                          

(X_TEAMG_SEQUENCE-RECOGNITION_Q1_Logic_U5.2) 9.794E-09                          

(X_TEAMG_SEQUENCE-RECOGNITION_Q1_Logic_U5.3) 14.69E-09                          

(X_TEAMG_SEQUENCE-RECOGNITION_Q1_Logic_U9.1) 24.04E-12                          

(X_TEAMG_SEQUENCE-RECOGNITION_Q1_Logic_U9.2)     .0185                          

(X_TEAMG_SEQUENCE-RECOGNITION_Q1_Logic_U9.3)     .0185                          

(TEAMG_SEQUENCE-RECOGNITION_Q1_Logic_N077331) 5.670E-09                         

(X_TEAMG_SEQUENCE-RECOGNITION_Q0_Logic_U10.1) 90.15E-12                         

(X_TEAMG_SEQUENCE-RECOGNITION_Q0_Logic_U10.2) 180.3E-12                         

(X_TEAMG_SEQUENCE-RECOGNITION_Q0_Logic_U10.3)    2.7029                         

(X_TEAMG_SEQUENCE-RECOGNITION_Q1_Logic_U12.1) 107.9E-12                         

(X_TEAMG_SEQUENCE-RECOGNITION_Q1_Logic_U12.2) 215.7E-12                         

(X_TEAMG_SEQUENCE-RECOGNITION_Q1_Logic_U12.3) 323.6E-12                         

(X_TEAMG_SEQUENCE-RECOGNITION_Q1_Logic_U15.1) 28.37E-12                         

(X_TEAMG_SEQUENCE-RECOGNITION_Q1_Logic_U15.2) 56.75E-12                         

(X_TEAMG_SEQUENCE-RECOGNITION_Q1_Logic_U15.3)     .0220                         

(X_TEAMG_SEQUENCE-RECOGNITION_Q1_Logic_U16.1)    2.6491                         

(X_TEAMG_SEQUENCE-RECOGNITION_Q1_Logic_U16.2)    2.6556                         

(X_TEAMG_SEQUENCE-RECOGNITION_Q1_Logic_U16.3)    2.6756                         

(X_TEAMG_SEQUENCE-RECOGNITION_Q1_Logic_U17.1)     .0200                         

(X_TEAMG_SEQUENCE-RECOGNITION_Q1_Logic_U17.2)    2.6698                         

(X_TEAMG_SEQUENCE-RECOGNITION_Q1_Logic_U17.3)    2.6861                         

(X_TEAMG_SEQUENCE-RECOGNITION_Q1_Logic_U20.1)     .0200                         

(X_TEAMG_SEQUENCE-RECOGNITION_Q1_Logic_U23.1)     .0200                         

(X_TEAMG_SEQUENCE-RECOGNITION_Q1_Logic_U24.1) 5.496E-09                         

(X_TEAMG_SEQUENCE-RECOGNITION_Q2_Logic_U14.1) 89.44E-12                         

(X_TEAMG_SEQUENCE-RECOGNITION_Q2_Logic_U14.2)    2.6694                         

(X_TEAMG_SEQUENCE-RECOGNITION_Q2_Logic_U14.3)    2.6857                         

(X_TEAMG_SEQUENCE-RECOGNITION_Q2_Logic_U15.1)    3.2875                         

(X_TEAMG_SEQUENCE-RECOGNITION_Q2_Logic_U20.1) 4.897E-09                         

(X_TEAMG_SEQUENCE-RECOGNITION_Q2_Logic_U20.2) 9.794E-09                         

(X_TEAMG_SEQUENCE-RECOGNITION_Q2_Logic_U20.3) 14.69E-09                         

(X_TEAMG_SEQUENCE-RECOGNITION_Q2_Logic_U25.1) 12.21E-12                         

(X_TEAMG_SEQUENCE-RECOGNITION_Q2_Logic_U25.2)     .0079                         

(X_TEAMG_SEQUENCE-RECOGNITION_Q2_Logic_U25.3)     .0273                         

(X_TEAMG_SEQUENCE-RECOGNITION_Q2_Logic_U26.1)     .0062                         

(X_TEAMG_SEQUENCE-RECOGNITION_Q2_Logic_U26.2)     .0062                         

(X_TEAMG_SEQUENCE-RECOGNITION_Q2_Logic_U26.3)     .0258                         

(X_TEAMG_SEQUENCE-RECOGNITION_Q2_Logic_U27.1) 107.9E-12                         

(X_TEAMG_SEQUENCE-RECOGNITION_Q2_Logic_U27.2) 215.7E-12                         

(X_TEAMG_SEQUENCE-RECOGNITION_Q2_Logic_U27.3) 323.6E-12                         

(X_TEAMG_SEQUENCE-RECOGNITION_Q2_Logic_U28.1)     .0071                         

(X_TEAMG_SEQUENCE-RECOGNITION_Q2_Logic_U28.2)     .0240                         

(X_TEAMG_SEQUENCE-RECOGNITION_Q2_Logic_U28.3)    2.7036                         

(X_TEAMG_SEQUENCE-RECOGNITION_Q2_Logic_U29.1)    3.3000                         

(X_TEAMG_SEQUENCE-RECOGNITION_Q3_Logic_NOR41_H1.1)    3.3000                    

(X_TEAMG_SEQUENCE-RECOGNITION_Q3_Logic_NOR41_H1.2)    3.2992                    

(X_TEAMG_SEQUENCE-RECOGNITION_Q3_Logic_NOR41_H1.3)    3.2807                



 DGTL NODE : STATE  DGTL NODE : STATE  DGTL NODE : STATE  DGTL NODE : STATE


(DATAIN$DtoA) : 0  (N_RESET$DtoA) : 1                    (CLK$DtoA) : 0     




    VOLTAGE SOURCE CURRENTS
    NAME         CURRENT

    V_V1        -6.597E-03
    V_V2         6.597E-03
    X$DIGIFPWR.VDPWR  -5.003E-03
    X$DIGIFPWR.VDGND  -5.000E-06

    TOTAL POWER DISSIPATION   4.68E-02  WATTS



          JOB CONCLUDED

**** 10/16/15 16:38:09 ***** PSpice 16.6.0 (October 2012) ***** ID# 0 ********

 ** Profile: "TEAMG_SEQUENCE-RECOGNITION_SIM-SEQUENCER_SIMULATION"  [ \\ugsamba\ja6g14\Documents\Year 2\D2\sequence\OrCAD\teamg_orcad


 ****     JOB STATISTICS SUMMARY


******************************************************************************



  Total job time (using Solver 1)   =        1.49
