
**** 10/16/15 15:22:04 ***** PSpice 16.6.0 (October 2012) ***** ID# 0 ********

 ** Profile: "TEAMG_SEQUENCE-RECOGNITION_SIM-SEQUENCER_SIMULATION"  [ \\ugsamba\ja6g14\Documents\Year 2\D2\sequence\OrCAD\teamg_orcad


 ****     CIRCUIT DESCRIPTION


******************************************************************************




** Creating circuit file "SEQUENCER_SIMULATION.cir" 
** WARNING: THIS AUTOMATICALLY GENERATED FILE MAY BE OVERWRITTEN BY SUBSEQUENT SIMULATIONS

*Libraries: 
* Profile Libraries :
* Local Libraries :
.LIB "//ugsamba/ja6g14/Documents/Year 2/D2/D2.lib" 
* From [PSPICE NETLIST] section of C:\Users\ja6g14\AppData\Local\Temp\16.6.0/PSpice.ini file:
.lib "nom.lib" 

*Analysis directives: 
.TRAN  0 100ns 0 
.OPTIONS ADVCONV
.PROBE64 V(alias(*)) I(alias(*)) W(alias(*)) D(alias(*)) NOISE(alias(*)) 
.INC "..\TEAMG_SEQUENCE-RECOGNITION_SIM.net" 



**** INCLUDING TEAMG_SEQUENCE-RECOGNITION_SIM.net ****
* source TEAMG_ORCAD
U_DataIn         STIM(1,1)
+ VDD GND
+ DATAIN 
+ IO_STM
+ IO_LEVEL=0
+  0n 0  
+ 2.5n 1  
+ 12.5n 0  
+ 22.5n 1 
+ 32.5n 1  
+ 42.5n 0  
+ 52.5n 1  
+ 62.5n 1  
+ 72.5n 0  
+ 82.5n 1  
+ 92.5n 1  
+ 112.5n 0 
U_N_RESET         STIM(1,1)
+ VDD GND
+ N_RESET 
+ IO_STM
+ IO_LEVEL=0
+  0n 1  
+ 1.25n 0  
+ 2n 1  
V_V1         VDD 0 3.3Vdc
V_V2         GND 0 0Vdc
X_TEAMG_SEQUENCE-RECOGNITION_U26         CLK TEAMG_SEQUENCE-RECOGNITION_D1 GND
+  TEAMG_SEQUENCE-RECOGNITION_Q1 TEAMG_SEQUENCE-RECOGNITION_-Q1 N_RESET VDD
+  DFC1_H 
X_TEAMG_SEQUENCE-RECOGNITION_Q1_Logic_U9         TEAMG_SEQUENCE-RECOGNITION_Q0
+  TEAMG_SEQUENCE-RECOGNITION_-Q1 TEAMG_SEQUENCE-RECOGNITION_Q2
+  TEAMG_SEQUENCE-RECOGNITION_-Q3 GND TEAMG_SEQUENCE-RECOGNITION_Q1_Logic_N07811
+  VDD NAND41_H 
X_TEAMG_SEQUENCE-RECOGNITION_Q1_Logic_U20        
+  TEAMG_SEQUENCE-RECOGNITION_Q1_Logic_N077331 DATAIN GND
+  TEAMG_SEQUENCE-RECOGNITION_Q1_Logic_N08908 VDD NAND21_H 
X_TEAMG_SEQUENCE-RECOGNITION_Q1_Logic_U15         TEAMG_SEQUENCE-RECOGNITION_Q1
+  DATAIN TEAMG_SEQUENCE-RECOGNITION_-Q3 TEAMG_SEQUENCE-RECOGNITION_-Q0 GND
+  TEAMG_SEQUENCE-RECOGNITION_Q1_Logic_N03949 VDD NAND41_H 
X_TEAMG_SEQUENCE-RECOGNITION_Q1_Logic_U23        
+  TEAMG_SEQUENCE-RECOGNITION_Q1_Logic_N08478 DATAIN GND
+  TEAMG_SEQUENCE-RECOGNITION_Q1_Logic_N08912 VDD NAND21_H 
X_TEAMG_SEQUENCE-RECOGNITION_Q1_Logic_U21        
+  TEAMG_SEQUENCE-RECOGNITION_Q1_Logic_N04051 GND
+  TEAMG_SEQUENCE-RECOGNITION_Q1_Logic_N08478 VDD INV1_H 
X_TEAMG_SEQUENCE-RECOGNITION_Q1_Logic_U17        
+  TEAMG_SEQUENCE-RECOGNITION_-Q0 TEAMG_SEQUENCE-RECOGNITION_-Q3
+  TEAMG_SEQUENCE-RECOGNITION_Q2 TEAMG_SEQUENCE-RECOGNITION_Q1 GND
+  TEAMG_SEQUENCE-RECOGNITION_Q1_Logic_N03921 VDD NAND41_H 
X_TEAMG_SEQUENCE-RECOGNITION_Q1_Logic_U5        
+  TEAMG_SEQUENCE-RECOGNITION_Q1_Logic_N03921
+  TEAMG_SEQUENCE-RECOGNITION_Q1_Logic_N03949
+  TEAMG_SEQUENCE-RECOGNITION_Q1_Logic_N03941
+  TEAMG_SEQUENCE-RECOGNITION_Q1_Logic_N03929 GND TEAMG_SEQUENCE-RECOGNITION_D1
+  VDD NAND41_H 
X_TEAMG_SEQUENCE-RECOGNITION_Q1_Logic_U16        
+  TEAMG_SEQUENCE-RECOGNITION_N04888 TEAMG_SEQUENCE-RECOGNITION_-Q3
+  TEAMG_SEQUENCE-RECOGNITION_-Q2 TEAMG_SEQUENCE-RECOGNITION_Q0 GND
+  TEAMG_SEQUENCE-RECOGNITION_Q1_Logic_N03941 VDD NAND41_H 
X_TEAMG_SEQUENCE-RECOGNITION_Q1_Logic_U12         MATCHALL
+  TEAMG_SEQUENCE-RECOGNITION_-Q2 TEAMG_SEQUENCE-RECOGNITION_-Q1
+  TEAMG_SEQUENCE-RECOGNITION_-Q0 GND TEAMG_SEQUENCE-RECOGNITION_Q1_Logic_N04051
+  VDD NAND41_H 
X_TEAMG_SEQUENCE-RECOGNITION_Q1_Logic_U18        
+  TEAMG_SEQUENCE-RECOGNITION_Q1_Logic_N07811 GND
+  TEAMG_SEQUENCE-RECOGNITION_Q1_Logic_N077331 VDD INV1_H 
X_TEAMG_SEQUENCE-RECOGNITION_Q1_Logic_U24        
+  TEAMG_SEQUENCE-RECOGNITION_Q1_Logic_N08908
+  TEAMG_SEQUENCE-RECOGNITION_Q1_Logic_N08912 GND
+  TEAMG_SEQUENCE-RECOGNITION_Q1_Logic_N08904 VDD NAND21_H 
X_TEAMG_SEQUENCE-RECOGNITION_Q1_Logic_U25        
+  TEAMG_SEQUENCE-RECOGNITION_Q1_Logic_N08904 GND
+  TEAMG_SEQUENCE-RECOGNITION_Q1_Logic_N03929 VDD INV1_H 
X_TEAMG_SEQUENCE-RECOGNITION_U25         CLK TEAMG_SEQUENCE-RECOGNITION_D2 GND
+  TEAMG_SEQUENCE-RECOGNITION_Q2 TEAMG_SEQUENCE-RECOGNITION_-Q2 N_RESET VDD
+  DFC1_H 
X_TEAMG_SEQUENCE-RECOGNITION_Q2_Logic_U15        
+  TEAMG_SEQUENCE-RECOGNITION_N04888 TEAMG_SEQUENCE-RECOGNITION_Q2_Logic_N04316
+  GND TEAMG_SEQUENCE-RECOGNITION_Q2_Logic_N04278 VDD NOR21_H 
X_TEAMG_SEQUENCE-RECOGNITION_Q2_Logic_U28        
+  TEAMG_SEQUENCE-RECOGNITION_-Q2 TEAMG_SEQUENCE-RECOGNITION_Q1
+  TEAMG_SEQUENCE-RECOGNITION_Q0 DATAIN GND
+  TEAMG_SEQUENCE-RECOGNITION_Q2_Logic_N04641 VDD NAND41_H 
X_TEAMG_SEQUENCE-RECOGNITION_Q2_Logic_U30        
+  TEAMG_SEQUENCE-RECOGNITION_Q2_Logic_N08635 GND TEAMG_SEQUENCE-RECOGNITION_D2
+  VDD INV1_H 
X_TEAMG_SEQUENCE-RECOGNITION_Q2_Logic_U25         DATAIN
+  TEAMG_SEQUENCE-RECOGNITION_Q2 TEAMG_SEQUENCE-RECOGNITION_Q1
+  TEAMG_SEQUENCE-RECOGNITION_-Q0 GND TEAMG_SEQUENCE-RECOGNITION_Q2_Logic_N07852
+  VDD NAND41_H 
X_TEAMG_SEQUENCE-RECOGNITION_Q2_Logic_U14        
+  TEAMG_SEQUENCE-RECOGNITION_-Q2 TEAMG_SEQUENCE-RECOGNITION_-Q1 MATCHALL
+  TEAMG_SEQUENCE-RECOGNITION_-Q0 GND TEAMG_SEQUENCE-RECOGNITION_Q2_Logic_N04316
+  VDD NAND41_H 
X_TEAMG_SEQUENCE-RECOGNITION_Q2_Logic_U26         TEAMG_SEQUENCE-RECOGNITION_Q2
+  TEAMG_SEQUENCE-RECOGNITION_Q0 TEAMG_SEQUENCE-RECOGNITION_-Q1 DATAIN GND
+  TEAMG_SEQUENCE-RECOGNITION_Q2_Logic_N04619 VDD NAND41_H 
X_TEAMG_SEQUENCE-RECOGNITION_Q2_Logic_U29        
+  TEAMG_SEQUENCE-RECOGNITION_Q2_Logic_N04278
+  TEAMG_SEQUENCE-RECOGNITION_Q2_Logic_N04667 GND
+  TEAMG_SEQUENCE-RECOGNITION_Q2_Logic_N08635 VDD NOR21_H 
X_TEAMG_SEQUENCE-RECOGNITION_Q2_Logic_U20        
+  TEAMG_SEQUENCE-RECOGNITION_Q2_Logic_N07852
+  TEAMG_SEQUENCE-RECOGNITION_Q2_Logic_N04619
+  TEAMG_SEQUENCE-RECOGNITION_Q2_Logic_N04633
+  TEAMG_SEQUENCE-RECOGNITION_Q2_Logic_N04641 GND
+  TEAMG_SEQUENCE-RECOGNITION_Q2_Logic_N04667 VDD NAND41_H 
X_TEAMG_SEQUENCE-RECOGNITION_Q2_Logic_U27         TEAMG_SEQUENCE-RECOGNITION_Q2
+  TEAMG_SEQUENCE-RECOGNITION_-Q1 TEAMG_SEQUENCE-RECOGNITION_-Q0
+  TEAMG_SEQUENCE-RECOGNITION_N04888 GND
+  TEAMG_SEQUENCE-RECOGNITION_Q2_Logic_N04633 VDD NAND41_H 
X_TEAMG_SEQUENCE-RECOGNITION_Q0_Logic_U8         DATAIN
+  TEAMG_SEQUENCE-RECOGNITION_-Q3 TEAMG_SEQUENCE-RECOGNITION_-Q0 GND
+  TEAMG_SEQUENCE-RECOGNITION_Q0_Logic_N04232 VDD NAND31_H 
X_TEAMG_SEQUENCE-RECOGNITION_Q0_Logic_U3        
+  TEAMG_SEQUENCE-RECOGNITION_Q0_Logic_N04232
+  TEAMG_SEQUENCE-RECOGNITION_Q0_Logic_N04344
+  TEAMG_SEQUENCE-RECOGNITION_Q0_Logic_N04259 GND TEAMG_SEQUENCE-RECOGNITION_D0
+  VDD NAND31_H 
X_TEAMG_SEQUENCE-RECOGNITION_Q0_Logic_U9         TEAMG_SEQUENCE-RECOGNITION_-Q3
+  DATAIN TEAMG_SEQUENCE-RECOGNITION_-Q1 TEAMG_SEQUENCE-RECOGNITION_-Q2 GND
+  TEAMG_SEQUENCE-RECOGNITION_Q0_Logic_N04344 VDD NAND41_H 
X_TEAMG_SEQUENCE-RECOGNITION_Q0_Logic_U10        
+  TEAMG_SEQUENCE-RECOGNITION_-Q3 TEAMG_SEQUENCE-RECOGNITION_Q2
+  TEAMG_SEQUENCE-RECOGNITION_-Q0 TEAMG_SEQUENCE-RECOGNITION_-Q1 GND
+  TEAMG_SEQUENCE-RECOGNITION_Q0_Logic_N04259 VDD NAND41_H 
X_TEAMG_SEQUENCE-RECOGNITION_U24         CLK TEAMG_SEQUENCE-RECOGNITION_D3 GND
+  MATCHALL TEAMG_SEQUENCE-RECOGNITION_-Q3 N_RESET VDD DFC1_H 
X_TEAMG_SEQUENCE-RECOGNITION_U27         CLK TEAMG_SEQUENCE-RECOGNITION_D0 GND
+  TEAMG_SEQUENCE-RECOGNITION_Q0 TEAMG_SEQUENCE-RECOGNITION_-Q0 N_RESET VDD
+  DFC1_H 
X_TEAMG_SEQUENCE-RECOGNITION_U28         DATAIN GND
+  TEAMG_SEQUENCE-RECOGNITION_N04888 VDD INV1_H 
X_TEAMG_SEQUENCE-RECOGNITION_Q3_Logic_NOR41_H1         DATAIN
+  TEAMG_SEQUENCE-RECOGNITION_-Q0 TEAMG_SEQUENCE-RECOGNITION_-Q1
+  TEAMG_SEQUENCE-RECOGNITION_-Q2 GND TEAMG_SEQUENCE-RECOGNITION_D3 VDD NOR41_H 
U_DSTM1         STIM(1,1) $G_DPWR $G_DGND CLK IO_STM IO_LEVEL=0 
+ 0 0
+ +5n 0.7
------$
ERROR(ORPSIM-16260): Invalid value
+REPEAT FOREVER
+ +5n 0
+  +5n 0.7
+ ENDREPEAT
-----------$
ERROR(ORPSIM-16249): Bad state value(s)

**** RESUMING SEQUENCER_SIMULATION.cir ****
.END
