
**** 10/10/15 18:10:13 ***** PSpice 16.6.0 (October 2012) ***** ID# 0 ********

 ** Profile: "Newbench-Newbench"  [ h:\d2\multiplierunsigned\multiplierunsigned-PSpiceFiles\Newbench\Newbench.sim ] 


 ****     CIRCUIT DESCRIPTION


******************************************************************************




** Creating circuit file "Newbench.cir" 
** WARNING: THIS AUTOMATICALLY GENERATED FILE MAY BE OVERWRITTEN BY SUBSEQUENT SIMULATIONS

*Libraries: 
* Profile Libraries :
* Local Libraries :
.LIB "h:/d2/libraries/schematic/d2.lib" 
* From [PSPICE NETLIST] section of d:\Users\gpeh1g14\AppData\Local\Temp\54\16.6.0/PSpice.ini file:
.lib "nom.lib" 

*Analysis directives: 
.TRAN  0 100ns 0 
.OPTIONS ADVCONV
.PROBE64 V(alias(*)) I(alias(*)) W(alias(*)) D(alias(*)) NOISE(alias(*)) 
.INC "..\Newbench.net" 



**** INCLUDING Newbench.net ****
* source MULTIPLIERUNSIGNED
U_Y1         STIM(1,1)
+ VDD GND
+ N023591 
+ IO_STM
+ IO_LEVEL=0
+  0s 1  
V_V1         VDD 0 3.3Vdc
X_MULTIPLIER_AND2_U1         N023597 N023590 GND MULTIPLIER_AND2_N000402 VDD
+  NAND21_H 
X_MULTIPLIER_AND2_U2         MULTIPLIER_AND2_N000402 GND MULTIPLIER_N02924 VDD
+  INV1_H 
X_MULTIPLIER_AND0_U1         N023595 N023590 GND MULTIPLIER_AND0_N000402 VDD
+  NAND21_H 
X_MULTIPLIER_AND0_U2         MULTIPLIER_AND0_N000402 GND MULTIPLIER_N02858 VDD
+  INV1_H 
X_MULTIPLIER_MULTIBLOCK2_HALFADDER0_U4         MULTIPLIER_MULTIBLOCK2_N00319
+  MULTIPLIER_N03841 GND MULTIPLIER_MULTIBLOCK2_HALFADDER0_N00228 VDD NAND21_H 
X_MULTIPLIER_MULTIBLOCK2_HALFADDER0_U2        
+  MULTIPLIER_MULTIBLOCK2_HALFADDER0_N00228 GND MULTIPLIER_MULTIBLOCK2_N00091 VDD
+  INV1_H 
X_MULTIPLIER_MULTIBLOCK2_HALFADDER0_U3         MULTIPLIER_MULTIBLOCK2_N00319
+  MULTIPLIER_N03841 GND N02475 VDD XOR21_H 
X_MULTIPLIER_MULTIBLOCK2_AND1_U1         N023595 N023593 GND
+  MULTIPLIER_MULTIBLOCK2_AND1_N000402 VDD NAND21_H 
X_MULTIPLIER_MULTIBLOCK2_AND1_U2         MULTIPLIER_MULTIBLOCK2_AND1_N000402
+  GND MULTIPLIER_MULTIBLOCK2_N00323 VDD INV1_H 
X_MULTIPLIER_MULTIBLOCK2_FULLADDER0_U3        
+  MULTIPLIER_MULTIBLOCK2_FULLADDER0_N00976 MULTIPLIER_MULTIBLOCK2_N00091 GND
+  N02481 VDD XOR21_H 
X_MULTIPLIER_MULTIBLOCK2_FULLADDER0_AND1_U1        
+  MULTIPLIER_MULTIBLOCK2_N00323 MULTIPLIER_N03853 GND
+  MULTIPLIER_MULTIBLOCK2_FULLADDER0_AND1_N000402 VDD NAND21_H 
X_MULTIPLIER_MULTIBLOCK2_FULLADDER0_AND1_U2        
+  MULTIPLIER_MULTIBLOCK2_FULLADDER0_AND1_N000402 GND
+  MULTIPLIER_MULTIBLOCK2_FULLADDER0_N00847 VDD INV1_H 
X_MULTIPLIER_MULTIBLOCK2_FULLADDER0_U2        
+  MULTIPLIER_MULTIBLOCK2_FULLADDER0_N000862 GND MULTIPLIER_MULTIBLOCK2_N00087
+  VDD INV1_H 
X_MULTIPLIER_MULTIBLOCK2_FULLADDER0_U4         MULTIPLIER_MULTIBLOCK2_N00323
+  MULTIPLIER_N03853 GND MULTIPLIER_MULTIBLOCK2_FULLADDER0_N00976 VDD XOR21_H 
X_MULTIPLIER_MULTIBLOCK2_FULLADDER0_AND2_U1        
+  MULTIPLIER_MULTIBLOCK2_FULLADDER0_N00976 MULTIPLIER_MULTIBLOCK2_N00091 GND
+  MULTIPLIER_MULTIBLOCK2_FULLADDER0_AND2_N000402 VDD NAND21_H 
X_MULTIPLIER_MULTIBLOCK2_FULLADDER0_AND2_U2        
+  MULTIPLIER_MULTIBLOCK2_FULLADDER0_AND2_N000402 GND
+  MULTIPLIER_MULTIBLOCK2_FULLADDER0_N00347 VDD INV1_H 
X_MULTIPLIER_MULTIBLOCK2_FULLADDER0_U1        
+  MULTIPLIER_MULTIBLOCK2_FULLADDER0_N00847
+  MULTIPLIER_MULTIBLOCK2_FULLADDER0_N00347 GND
+  MULTIPLIER_MULTIBLOCK2_FULLADDER0_N000862 VDD NOR21_H 
X_MULTIPLIER_MULTIBLOCK2_AND2_U1         N023596 N023593 GND
+  MULTIPLIER_MULTIBLOCK2_AND2_N000402 VDD NAND21_H 
X_MULTIPLIER_MULTIBLOCK2_AND2_U2         MULTIPLIER_MULTIBLOCK2_AND2_N000402
+  GND MULTIPLIER_MULTIBLOCK2_N00327 VDD INV1_H 
X_MULTIPLIER_MULTIBLOCK2_AND3_U1         N023597 N023593 GND
+  MULTIPLIER_MULTIBLOCK2_AND3_N000402 VDD NAND21_H 
X_MULTIPLIER_MULTIBLOCK2_AND3_U2         MULTIPLIER_MULTIBLOCK2_AND3_N000402
+  GND MULTIPLIER_MULTIBLOCK2_N00331 VDD INV1_H 
X_MULTIPLIER_MULTIBLOCK2_FULLADDER1_U3        
+  MULTIPLIER_MULTIBLOCK2_FULLADDER1_N00976 MULTIPLIER_MULTIBLOCK2_N00087 GND
+  N02487 VDD XOR21_H 
X_MULTIPLIER_MULTIBLOCK2_FULLADDER1_AND1_U1        
+  MULTIPLIER_MULTIBLOCK2_N00327 MULTIPLIER_N03849 GND
+  MULTIPLIER_MULTIBLOCK2_FULLADDER1_AND1_N000402 VDD NAND21_H 
X_MULTIPLIER_MULTIBLOCK2_FULLADDER1_AND1_U2        
+  MULTIPLIER_MULTIBLOCK2_FULLADDER1_AND1_N000402 GND
+  MULTIPLIER_MULTIBLOCK2_FULLADDER1_N00847 VDD INV1_H 
X_MULTIPLIER_MULTIBLOCK2_FULLADDER1_U2        
+  MULTIPLIER_MULTIBLOCK2_FULLADDER1_N000862 GND MULTIPLIER_MULTIBLOCK2_N00083
+  VDD INV1_H 
X_MULTIPLIER_MULTIBLOCK2_FULLADDER1_U4         MULTIPLIER_MULTIBLOCK2_N00327
+  MULTIPLIER_N03849 GND MULTIPLIER_MULTIBLOCK2_FULLADDER1_N00976 VDD XOR21_H 
X_MULTIPLIER_MULTIBLOCK2_FULLADDER1_AND2_U1        
+  MULTIPLIER_MULTIBLOCK2_FULLADDER1_N00976 MULTIPLIER_MULTIBLOCK2_N00087 GND
+  MULTIPLIER_MULTIBLOCK2_FULLADDER1_AND2_N000402 VDD NAND21_H 
X_MULTIPLIER_MULTIBLOCK2_FULLADDER1_AND2_U2        
+  MULTIPLIER_MULTIBLOCK2_FULLADDER1_AND2_N000402 GND
+  MULTIPLIER_MULTIBLOCK2_FULLADDER1_N00347 VDD INV1_H 
X_MULTIPLIER_MULTIBLOCK2_FULLADDER1_U1        
+  MULTIPLIER_MULTIBLOCK2_FULLADDER1_N00847
+  MULTIPLIER_MULTIBLOCK2_FULLADDER1_N00347 GND
+  MULTIPLIER_MULTIBLOCK2_FULLADDER1_N000862 VDD NOR21_H 
X_MULTIPLIER_MULTIBLOCK2_FULLADDER2_U3        
+  MULTIPLIER_MULTIBLOCK2_FULLADDER2_N00976 MULTIPLIER_MULTIBLOCK2_N00083 GND
+  N02493 VDD XOR21_H 
X_MULTIPLIER_MULTIBLOCK2_FULLADDER2_AND1_U1        
+  MULTIPLIER_MULTIBLOCK2_N00331 MULTIPLIER_N03845 GND
+  MULTIPLIER_MULTIBLOCK2_FULLADDER2_AND1_N000402 VDD NAND21_H 
X_MULTIPLIER_MULTIBLOCK2_FULLADDER2_AND1_U2        
+  MULTIPLIER_MULTIBLOCK2_FULLADDER2_AND1_N000402 GND
+  MULTIPLIER_MULTIBLOCK2_FULLADDER2_N00847 VDD INV1_H 
X_MULTIPLIER_MULTIBLOCK2_FULLADDER2_U2        
+  MULTIPLIER_MULTIBLOCK2_FULLADDER2_N000862 GND N02499 VDD INV1_H 
X_MULTIPLIER_MULTIBLOCK2_FULLADDER2_U4         MULTIPLIER_MULTIBLOCK2_N00331
+  MULTIPLIER_N03845 GND MULTIPLIER_MULTIBLOCK2_FULLADDER2_N00976 VDD XOR21_H 
X_MULTIPLIER_MULTIBLOCK2_FULLADDER2_AND2_U1        
+  MULTIPLIER_MULTIBLOCK2_FULLADDER2_N00976 MULTIPLIER_MULTIBLOCK2_N00083 GND
+  MULTIPLIER_MULTIBLOCK2_FULLADDER2_AND2_N000402 VDD NAND21_H 
X_MULTIPLIER_MULTIBLOCK2_FULLADDER2_AND2_U2        
+  MULTIPLIER_MULTIBLOCK2_FULLADDER2_AND2_N000402 GND
+  MULTIPLIER_MULTIBLOCK2_FULLADDER2_N00347 VDD INV1_H 
X_MULTIPLIER_MULTIBLOCK2_FULLADDER2_U1        
+  MULTIPLIER_MULTIBLOCK2_FULLADDER2_N00847
+  MULTIPLIER_MULTIBLOCK2_FULLADDER2_N00347 GND
+  MULTIPLIER_MULTIBLOCK2_FULLADDER2_N000862 VDD NOR21_H 
X_MULTIPLIER_MULTIBLOCK2_AND0_U1         N023594 N023593 GND
+  MULTIPLIER_MULTIBLOCK2_AND0_N000402 VDD NAND21_H 
X_MULTIPLIER_MULTIBLOCK2_AND0_U2         MULTIPLIER_MULTIBLOCK2_AND0_N000402
+  GND MULTIPLIER_MULTIBLOCK2_N00319 VDD INV1_H 
X_MULTIPLIER_MULTIBLOCK0_HALFADDER0_U4         MULTIPLIER_MULTIBLOCK0_N00319
+  MULTIPLIER_N02858 GND MULTIPLIER_MULTIBLOCK0_HALFADDER0_N00228 VDD NAND21_H 
X_MULTIPLIER_MULTIBLOCK0_HALFADDER0_U2        
+  MULTIPLIER_MULTIBLOCK0_HALFADDER0_N00228 GND MULTIPLIER_MULTIBLOCK0_N00091 VDD
+  INV1_H 
X_MULTIPLIER_MULTIBLOCK0_HALFADDER0_U3         MULTIPLIER_MULTIBLOCK0_N00319
+  MULTIPLIER_N02858 GND N02463 VDD XOR21_H 
X_MULTIPLIER_MULTIBLOCK0_AND1_U1         N023595 N023591 GND
+  MULTIPLIER_MULTIBLOCK0_AND1_N000402 VDD NAND21_H 
X_MULTIPLIER_MULTIBLOCK0_AND1_U2         MULTIPLIER_MULTIBLOCK0_AND1_N000402
+  GND MULTIPLIER_MULTIBLOCK0_N00323 VDD INV1_H 
X_MULTIPLIER_MULTIBLOCK0_FULLADDER0_U3        
+  MULTIPLIER_MULTIBLOCK0_FULLADDER0_N00976 MULTIPLIER_MULTIBLOCK0_N00091 GND
+  MULTIPLIER_N03709 VDD XOR21_H 
X_MULTIPLIER_MULTIBLOCK0_FULLADDER0_AND1_U1        
+  MULTIPLIER_MULTIBLOCK0_N00323 MULTIPLIER_N02928 GND
+  MULTIPLIER_MULTIBLOCK0_FULLADDER0_AND1_N000402 VDD NAND21_H 
X_MULTIPLIER_MULTIBLOCK0_FULLADDER0_AND1_U2        
+  MULTIPLIER_MULTIBLOCK0_FULLADDER0_AND1_N000402 GND
+  MULTIPLIER_MULTIBLOCK0_FULLADDER0_N00847 VDD INV1_H 
X_MULTIPLIER_MULTIBLOCK0_FULLADDER0_U2        
+  MULTIPLIER_MULTIBLOCK0_FULLADDER0_N000862 GND MULTIPLIER_MULTIBLOCK0_N00087
+  VDD INV1_H 
X_MULTIPLIER_MULTIBLOCK0_FULLADDER0_U4         MULTIPLIER_MULTIBLOCK0_N00323
+  MULTIPLIER_N02928 GND MULTIPLIER_MULTIBLOCK0_FULLADDER0_N00976 VDD XOR21_H 
X_MULTIPLIER_MULTIBLOCK0_FULLADDER0_AND2_U1        
+  MULTIPLIER_MULTIBLOCK0_FULLADDER0_N00976 MULTIPLIER_MULTIBLOCK0_N00091 GND
+  MULTIPLIER_MULTIBLOCK0_FULLADDER0_AND2_N000402 VDD NAND21_H 
X_MULTIPLIER_MULTIBLOCK0_FULLADDER0_AND2_U2        
+  MULTIPLIER_MULTIBLOCK0_FULLADDER0_AND2_N000402 GND
+  MULTIPLIER_MULTIBLOCK0_FULLADDER0_N00347 VDD INV1_H 
X_MULTIPLIER_MULTIBLOCK0_FULLADDER0_U1        
+  MULTIPLIER_MULTIBLOCK0_FULLADDER0_N00847
+  MULTIPLIER_MULTIBLOCK0_FULLADDER0_N00347 GND
+  MULTIPLIER_MULTIBLOCK0_FULLADDER0_N000862 VDD NOR21_H 
X_MULTIPLIER_MULTIBLOCK0_AND2_U1         N023596 N023591 GND
+  MULTIPLIER_MULTIBLOCK0_AND2_N000402 VDD NAND21_H 
X_MULTIPLIER_MULTIBLOCK0_AND2_U2         MULTIPLIER_MULTIBLOCK0_AND2_N000402
+  GND MULTIPLIER_MULTIBLOCK0_N00327 VDD INV1_H 
X_MULTIPLIER_MULTIBLOCK0_AND3_U1         N023597 N023591 GND
+  MULTIPLIER_MULTIBLOCK0_AND3_N000402 VDD NAND21_H 
X_MULTIPLIER_MULTIBLOCK0_AND3_U2         MULTIPLIER_MULTIBLOCK0_AND3_N000402
+  GND MULTIPLIER_MULTIBLOCK0_N00331 VDD INV1_H 
X_MULTIPLIER_MULTIBLOCK0_FULLADDER1_U3        
+  MULTIPLIER_MULTIBLOCK0_FULLADDER1_N00976 MULTIPLIER_MULTIBLOCK0_N00087 GND
+  MULTIPLIER_N03713 VDD XOR21_H 
X_MULTIPLIER_MULTIBLOCK0_FULLADDER1_AND1_U1        
+  MULTIPLIER_MULTIBLOCK0_N00327 MULTIPLIER_N02924 GND
+  MULTIPLIER_MULTIBLOCK0_FULLADDER1_AND1_N000402 VDD NAND21_H 
X_MULTIPLIER_MULTIBLOCK0_FULLADDER1_AND1_U2        
+  MULTIPLIER_MULTIBLOCK0_FULLADDER1_AND1_N000402 GND
+  MULTIPLIER_MULTIBLOCK0_FULLADDER1_N00847 VDD INV1_H 
X_MULTIPLIER_MULTIBLOCK0_FULLADDER1_U2        
+  MULTIPLIER_MULTIBLOCK0_FULLADDER1_N000862 GND MULTIPLIER_MULTIBLOCK0_N00083
+  VDD INV1_H 
X_MULTIPLIER_MULTIBLOCK0_FULLADDER1_U4         MULTIPLIER_MULTIBLOCK0_N00327
+  MULTIPLIER_N02924 GND MULTIPLIER_MULTIBLOCK0_FULLADDER1_N00976 VDD XOR21_H 
X_MULTIPLIER_MULTIBLOCK0_FULLADDER1_AND2_U1        
+  MULTIPLIER_MULTIBLOCK0_FULLADDER1_N00976 MULTIPLIER_MULTIBLOCK0_N00087 GND
+  MULTIPLIER_MULTIBLOCK0_FULLADDER1_AND2_N000402 VDD NAND21_H 
X_MULTIPLIER_MULTIBLOCK0_FULLADDER1_AND2_U2        
+  MULTIPLIER_MULTIBLOCK0_FULLADDER1_AND2_N000402 GND
+  MULTIPLIER_MULTIBLOCK0_FULLADDER1_N00347 VDD INV1_H 
X_MULTIPLIER_MULTIBLOCK0_FULLADDER1_U1        
+  MULTIPLIER_MULTIBLOCK0_FULLADDER1_N00847
+  MULTIPLIER_MULTIBLOCK0_FULLADDER1_N00347 GND
+  MULTIPLIER_MULTIBLOCK0_FULLADDER1_N000862 VDD NOR21_H 
X_MULTIPLIER_MULTIBLOCK0_FULLADDER2_U3        
+  MULTIPLIER_MULTIBLOCK0_FULLADDER2_N00976 MULTIPLIER_MULTIBLOCK0_N00083 GND
+  MULTIPLIER_N03717 VDD XOR21_H 
X_MULTIPLIER_MULTIBLOCK0_FULLADDER2_AND1_U1        
+  MULTIPLIER_MULTIBLOCK0_N00331 MULTIPLIER_N02920 GND
+  MULTIPLIER_MULTIBLOCK0_FULLADDER2_AND1_N000402 VDD NAND21_H 
X_MULTIPLIER_MULTIBLOCK0_FULLADDER2_AND1_U2        
+  MULTIPLIER_MULTIBLOCK0_FULLADDER2_AND1_N000402 GND
+  MULTIPLIER_MULTIBLOCK0_FULLADDER2_N00847 VDD INV1_H 
X_MULTIPLIER_MULTIBLOCK0_FULLADDER2_U2        
+  MULTIPLIER_MULTIBLOCK0_FULLADDER2_N000862 GND MULTIPLIER_N03721 VDD INV1_H 
X_MULTIPLIER_MULTIBLOCK0_FULLADDER2_U4         MULTIPLIER_MULTIBLOCK0_N00331
+  MULTIPLIER_N02920 GND MULTIPLIER_MULTIBLOCK0_FULLADDER2_N00976 VDD XOR21_H 
X_MULTIPLIER_MULTIBLOCK0_FULLADDER2_AND2_U1        
+  MULTIPLIER_MULTIBLOCK0_FULLADDER2_N00976 MULTIPLIER_MULTIBLOCK0_N00083 GND
+  MULTIPLIER_MULTIBLOCK0_FULLADDER2_AND2_N000402 VDD NAND21_H 
X_MULTIPLIER_MULTIBLOCK0_FULLADDER2_AND2_U2        
+  MULTIPLIER_MULTIBLOCK0_FULLADDER2_AND2_N000402 GND
+  MULTIPLIER_MULTIBLOCK0_FULLADDER2_N00347 VDD INV1_H 
X_MULTIPLIER_MULTIBLOCK0_FULLADDER2_U1        
+  MULTIPLIER_MULTIBLOCK0_FULLADDER2_N00847
+  MULTIPLIER_MULTIBLOCK0_FULLADDER2_N00347 GND
+  MULTIPLIER_MULTIBLOCK0_FULLADDER2_N000862 VDD NOR21_H 
X_MULTIPLIER_MULTIBLOCK0_AND0_U1         N023594 N023591 GND
+  MULTIPLIER_MULTIBLOCK0_AND0_N000402 VDD NAND21_H 
X_MULTIPLIER_MULTIBLOCK0_AND0_U2         MULTIPLIER_MULTIBLOCK0_AND0_N000402
+  GND MULTIPLIER_MULTIBLOCK0_N00319 VDD INV1_H 
X_MULTIPLIER_AND1_U1         N023596 N023590 GND MULTIPLIER_AND1_N000402 VDD
+  NAND21_H 
X_MULTIPLIER_AND1_U2         MULTIPLIER_AND1_N000402 GND MULTIPLIER_N02928 VDD
+  INV1_H 
X_MULTIPLIER_U7         GND MULTIPLIER_N02920 VDD TIE0_H 
X_MULTIPLIER_MULTIBLOCK1_HALFADDER0_U4         MULTIPLIER_MULTIBLOCK1_N00319
+  MULTIPLIER_N03709 GND MULTIPLIER_MULTIBLOCK1_HALFADDER0_N00228 VDD NAND21_H 
X_MULTIPLIER_MULTIBLOCK1_HALFADDER0_U2        
+  MULTIPLIER_MULTIBLOCK1_HALFADDER0_N00228 GND MULTIPLIER_MULTIBLOCK1_N00091 VDD
+  INV1_H 
X_MULTIPLIER_MULTIBLOCK1_HALFADDER0_U3         MULTIPLIER_MULTIBLOCK1_N00319
+  MULTIPLIER_N03709 GND N02469 VDD XOR21_H 
X_MULTIPLIER_MULTIBLOCK1_AND1_U1         N023595 N023592 GND
+  MULTIPLIER_MULTIBLOCK1_AND1_N000402 VDD NAND21_H 
X_MULTIPLIER_MULTIBLOCK1_AND1_U2         MULTIPLIER_MULTIBLOCK1_AND1_N000402
+  GND MULTIPLIER_MULTIBLOCK1_N00323 VDD INV1_H 
X_MULTIPLIER_MULTIBLOCK1_FULLADDER0_U3        
+  MULTIPLIER_MULTIBLOCK1_FULLADDER0_N00976 MULTIPLIER_MULTIBLOCK1_N00091 GND
+  MULTIPLIER_N03841 VDD XOR21_H 
X_MULTIPLIER_MULTIBLOCK1_FULLADDER0_AND1_U1        
+  MULTIPLIER_MULTIBLOCK1_N00323 MULTIPLIER_N03713 GND
+  MULTIPLIER_MULTIBLOCK1_FULLADDER0_AND1_N000402 VDD NAND21_H 
X_MULTIPLIER_MULTIBLOCK1_FULLADDER0_AND1_U2        
+  MULTIPLIER_MULTIBLOCK1_FULLADDER0_AND1_N000402 GND
+  MULTIPLIER_MULTIBLOCK1_FULLADDER0_N00847 VDD INV1_H 
X_MULTIPLIER_MULTIBLOCK1_FULLADDER0_U2        
+  MULTIPLIER_MULTIBLOCK1_FULLADDER0_N000862 GND MULTIPLIER_MULTIBLOCK1_N00087
+  VDD INV1_H 
X_MULTIPLIER_MULTIBLOCK1_FULLADDER0_U4         MULTIPLIER_MULTIBLOCK1_N00323
+  MULTIPLIER_N03713 GND MULTIPLIER_MULTIBLOCK1_FULLADDER0_N00976 VDD XOR21_H 
X_MULTIPLIER_MULTIBLOCK1_FULLADDER0_AND2_U1        
+  MULTIPLIER_MULTIBLOCK1_FULLADDER0_N00976 MULTIPLIER_MULTIBLOCK1_N00091 GND
+  MULTIPLIER_MULTIBLOCK1_FULLADDER0_AND2_N000402 VDD NAND21_H 
X_MULTIPLIER_MULTIBLOCK1_FULLADDER0_AND2_U2        
+  MULTIPLIER_MULTIBLOCK1_FULLADDER0_AND2_N000402 GND
+  MULTIPLIER_MULTIBLOCK1_FULLADDER0_N00347 VDD INV1_H 
X_MULTIPLIER_MULTIBLOCK1_FULLADDER0_U1        
+  MULTIPLIER_MULTIBLOCK1_FULLADDER0_N00847
+  MULTIPLIER_MULTIBLOCK1_FULLADDER0_N00347 GND
+  MULTIPLIER_MULTIBLOCK1_FULLADDER0_N000862 VDD NOR21_H 
X_MULTIPLIER_MULTIBLOCK1_AND2_U1         N023596 N023592 GND
+  MULTIPLIER_MULTIBLOCK1_AND2_N000402 VDD NAND21_H 
X_MULTIPLIER_MULTIBLOCK1_AND2_U2         MULTIPLIER_MULTIBLOCK1_AND2_N000402
+  GND MULTIPLIER_MULTIBLOCK1_N00327 VDD INV1_H 
X_MULTIPLIER_MULTIBLOCK1_AND3_U1         N023597 N023592 GND
+  MULTIPLIER_MULTIBLOCK1_AND3_N000402 VDD NAND21_H 
X_MULTIPLIER_MULTIBLOCK1_AND3_U2         MULTIPLIER_MULTIBLOCK1_AND3_N000402
+  GND MULTIPLIER_MULTIBLOCK1_N00331 VDD INV1_H 
X_MULTIPLIER_MULTIBLOCK1_FULLADDER1_U3        
+  MULTIPLIER_MULTIBLOCK1_FULLADDER1_N00976 MULTIPLIER_MULTIBLOCK1_N00087 GND
+  MULTIPLIER_N03853 VDD XOR21_H 
X_MULTIPLIER_MULTIBLOCK1_FULLADDER1_AND1_U1        
+  MULTIPLIER_MULTIBLOCK1_N00327 MULTIPLIER_N03717 GND
+  MULTIPLIER_MULTIBLOCK1_FULLADDER1_AND1_N000402 VDD NAND21_H 
X_MULTIPLIER_MULTIBLOCK1_FULLADDER1_AND1_U2        
+  MULTIPLIER_MULTIBLOCK1_FULLADDER1_AND1_N000402 GND
+  MULTIPLIER_MULTIBLOCK1_FULLADDER1_N00847 VDD INV1_H 
X_MULTIPLIER_MULTIBLOCK1_FULLADDER1_U2        
+  MULTIPLIER_MULTIBLOCK1_FULLADDER1_N000862 GND MULTIPLIER_MULTIBLOCK1_N00083
+  VDD INV1_H 
X_MULTIPLIER_MULTIBLOCK1_FULLADDER1_U4         MULTIPLIER_MULTIBLOCK1_N00327
+  MULTIPLIER_N03717 GND MULTIPLIER_MULTIBLOCK1_FULLADDER1_N00976 VDD XOR21_H 
X_MULTIPLIER_MULTIBLOCK1_FULLADDER1_AND2_U1        
+  MULTIPLIER_MULTIBLOCK1_FULLADDER1_N00976 MULTIPLIER_MULTIBLOCK1_N00087 GND
+  MULTIPLIER_MULTIBLOCK1_FULLADDER1_AND2_N000402 VDD NAND21_H 
X_MULTIPLIER_MULTIBLOCK1_FULLADDER1_AND2_U2        
+  MULTIPLIER_MULTIBLOCK1_FULLADDER1_AND2_N000402 GND
+  MULTIPLIER_MULTIBLOCK1_FULLADDER1_N00347 VDD INV1_H 
X_MULTIPLIER_MULTIBLOCK1_FULLADDER1_U1        
+  MULTIPLIER_MULTIBLOCK1_FULLADDER1_N00847
+  MULTIPLIER_MULTIBLOCK1_FULLADDER1_N00347 GND
+  MULTIPLIER_MULTIBLOCK1_FULLADDER1_N000862 VDD NOR21_H 
X_MULTIPLIER_MULTIBLOCK1_FULLADDER2_U3        
+  MULTIPLIER_MULTIBLOCK1_FULLADDER2_N00976 MULTIPLIER_MULTIBLOCK1_N00083 GND
+  MULTIPLIER_N03849 VDD XOR21_H 
X_MULTIPLIER_MULTIBLOCK1_FULLADDER2_AND1_U1        
+  MULTIPLIER_MULTIBLOCK1_N00331 MULTIPLIER_N03721 GND
+  MULTIPLIER_MULTIBLOCK1_FULLADDER2_AND1_N000402 VDD NAND21_H 
X_MULTIPLIER_MULTIBLOCK1_FULLADDER2_AND1_U2        
+  MULTIPLIER_MULTIBLOCK1_FULLADDER2_AND1_N000402 GND
+  MULTIPLIER_MULTIBLOCK1_FULLADDER2_N00847 VDD INV1_H 
X_MULTIPLIER_MULTIBLOCK1_FULLADDER2_U2        
+  MULTIPLIER_MULTIBLOCK1_FULLADDER2_N000862 GND MULTIPLIER_N03845 VDD INV1_H 
X_MULTIPLIER_MULTIBLOCK1_FULLADDER2_U4         MULTIPLIER_MULTIBLOCK1_N00331
+  MULTIPLIER_N03721 GND MULTIPLIER_MULTIBLOCK1_FULLADDER2_N00976 VDD XOR21_H 
X_MULTIPLIER_MULTIBLOCK1_FULLADDER2_AND2_U1        
+  MULTIPLIER_MULTIBLOCK1_FULLADDER2_N00976 MULTIPLIER_MULTIBLOCK1_N00083 GND
+  MULTIPLIER_MULTIBLOCK1_FULLADDER2_AND2_N000402 VDD NAND21_H 
X_MULTIPLIER_MULTIBLOCK1_FULLADDER2_AND2_U2        
+  MULTIPLIER_MULTIBLOCK1_FULLADDER2_AND2_N000402 GND
+  MULTIPLIER_MULTIBLOCK1_FULLADDER2_N00347 VDD INV1_H 
X_MULTIPLIER_MULTIBLOCK1_FULLADDER2_U1        
+  MULTIPLIER_MULTIBLOCK1_FULLADDER2_N00847
+  MULTIPLIER_MULTIBLOCK1_FULLADDER2_N00347 GND
+  MULTIPLIER_MULTIBLOCK1_FULLADDER2_N000862 VDD NOR21_H 
X_MULTIPLIER_MULTIBLOCK1_AND0_U1         N023594 N023592 GND
+  MULTIPLIER_MULTIBLOCK1_AND0_N000402 VDD NAND21_H 
X_MULTIPLIER_MULTIBLOCK1_AND0_U2         MULTIPLIER_MULTIBLOCK1_AND0_N000402
+  GND MULTIPLIER_MULTIBLOCK1_N00319 VDD INV1_H 
X_MULTIPLIER_AND3_U1         N023594 N023590 GND MULTIPLIER_AND3_N000402 VDD
+  NAND21_H 
X_MULTIPLIER_AND3_U2         MULTIPLIER_AND3_N000402 GND N02457 VDD INV1_H 
U_Y3         STIM(1,1)
+ VDD GND
+ N023593 
+ IO_STM
+ IO_LEVEL=0
+  0s 1  
U_Signed         STIM(1,1)
+ VDD GND
+ N023598 
+ IO_STM
+ IO_LEVEL=0
+  0s 0  
U_Y2         STIM(1,1)
+ VDD GND
+ N023592 
+ IO_STM
+ IO_LEVEL=0
+  0s 0  
U_X3         STIM(1,1)
+ VDD GND
+ N023597 
+ IO_STM
+ IO_LEVEL=0
+  0s 0  
U_X1         STIM(1,1)
+ VDD GND
+ N023595 
+ IO_STM
+ IO_LEVEL=0
+  0s 1  
V_V2         GND 0 0Vdc
U_X2         STIM(1,1)
+ VDD GND
+ N023596 
+ IO_STM
+ IO_LEVEL=0
+  0s 0  
U_Y0         STIM(1,1)
+ VDD GND
+ N023590 
+ IO_STM
+ IO_LEVEL=0
+  0s 0  
U_X0         STIM(1,1)
+ VDD GND
+ N023594 
+ IO_STM
+ IO_LEVEL=0
+  0s 1  

**** RESUMING Newbench.cir ****
.END


**** Generated AtoD and DtoA Interfaces ****

*
* Analog/Digital interface for node N023590
*
* Moving U_Y0:OUT1 from analog node N023590 to new digital node N023590$DtoA
X$N023590_DtoA1
+ N023590$DtoA
+ N023590
+ VDD
+ GND
+ DtoA_STM
+       PARAMS: DRVH=   0      DRVL=   0      CAPACITANCE=   0     
*
* Analog/Digital interface for node N023597
*
* Moving U_X3:OUT1 from analog node N023597 to new digital node N023597$DtoA
X$N023597_DtoA1
+ N023597$DtoA
+ N023597
+ VDD
+ GND
+ DtoA_STM
+       PARAMS: DRVH=   0      DRVL=   0      CAPACITANCE=   0     
*
* Analog/Digital interface for node N023595
*
* Moving U_X1:OUT1 from analog node N023595 to new digital node N023595$DtoA
X$N023595_DtoA1
+ N023595$DtoA
+ N023595
+ VDD
+ GND
+ DtoA_STM
+       PARAMS: DRVH=   0      DRVL=   0      CAPACITANCE=   0     
*
* Analog/Digital interface for node N023593
*
* Moving U_Y3:OUT1 from analog node N023593 to new digital node N023593$DtoA
X$N023593_DtoA1
+ N023593$DtoA
+ N023593
+ VDD
+ GND
+ DtoA_STM
+       PARAMS: DRVH=   0      DRVL=   0      CAPACITANCE=   0     
*
* Analog/Digital interface for node N023596
*
* Moving U_X2:OUT1 from analog node N023596 to new digital node N023596$DtoA
X$N023596_DtoA1
+ N023596$DtoA
+ N023596
+ VDD
+ GND
+ DtoA_STM
+       PARAMS: DRVH=   0      DRVL=   0      CAPACITANCE=   0     
*
* Analog/Digital interface for node N023594
*
* Moving U_X0:OUT1 from analog node N023594 to new digital node N023594$DtoA
X$N023594_DtoA1
+ N023594$DtoA
+ N023594
+ VDD
+ GND
+ DtoA_STM
+       PARAMS: DRVH=   0      DRVL=   0      CAPACITANCE=   0     
*
* Analog/Digital interface for node N023591
*
* Moving U_Y1:OUT1 from analog node N023591 to new digital node N023591$DtoA
X$N023591_DtoA1
+ N023591$DtoA
+ N023591
+ VDD
+ GND
+ DtoA_STM
+       PARAMS: DRVH=   0      DRVL=   0      CAPACITANCE=   0     
*
* Analog/Digital interface for node N023592
*
* Moving U_Y2:OUT1 from analog node N023592 to new digital node N023592$DtoA
X$N023592_DtoA1
+ N023592$DtoA
+ N023592
+ VDD
+ GND
+ DtoA_STM
+       PARAMS: DRVH=   0      DRVL=   0      CAPACITANCE=   0     
*
* Analog/Digital interface power supply subcircuits
*
X$DIGIFPWR 0 DIGIFPWR


WARNING(ORPSIM-15235): Mosfet X_MULTIPLIER_MULTIBLOCK2_FULLADDER0_U1.X1.M1, model MODP: Pd = 0 is less than W

WARNING(ORPSIM-15235): Mosfet X_MULTIPLIER_MULTIBLOCK2_FULLADDER0_U1.X1.M1, model MODP: Ps = 0 is less than W

WARNING(ORPSIM-15235): Mosfet X_MULTIPLIER_MULTIBLOCK2_FULLADDER0_U1.X1.M2, model MODP: Pd = 0 is less than W

WARNING(ORPSIM-15235): Mosfet X_MULTIPLIER_MULTIBLOCK2_FULLADDER0_U1.X1.M2, model MODP: Ps = 0 is less than W

WARNING(ORPSIM-15235): Mosfet X_MULTIPLIER_MULTIBLOCK2_FULLADDER1_U1.X1.M1, model MODP: Pd = 0 is less than W

WARNING(ORPSIM-15235): Mosfet X_MULTIPLIER_MULTIBLOCK2_FULLADDER1_U1.X1.M1, model MODP: Ps = 0 is less than W

WARNING(ORPSIM-15235): Mosfet X_MULTIPLIER_MULTIBLOCK2_FULLADDER1_U1.X1.M2, model MODP: Pd = 0 is less than W

WARNING(ORPSIM-15235): Mosfet X_MULTIPLIER_MULTIBLOCK2_FULLADDER1_U1.X1.M2, model MODP: Ps = 0 is less than W

WARNING(ORPSIM-15235): Mosfet X_MULTIPLIER_MULTIBLOCK2_FULLADDER2_U1.X1.M1, model MODP: Pd = 0 is less than W

WARNING(ORPSIM-15235): Mosfet X_MULTIPLIER_MULTIBLOCK2_FULLADDER2_U1.X1.M1, model MODP: Ps = 0 is less than W

WARNING(ORPSIM-15235): Mosfet X_MULTIPLIER_MULTIBLOCK2_FULLADDER2_U1.X1.M2, model MODP: Pd = 0 is less than W

WARNING(ORPSIM-15235): Mosfet X_MULTIPLIER_MULTIBLOCK2_FULLADDER2_U1.X1.M2, model MODP: Ps = 0 is less than W

WARNING(ORPSIM-15235): Mosfet X_MULTIPLIER_MULTIBLOCK0_FULLADDER0_U1.X1.M1, model MODP: Pd = 0 is less than W

WARNING(ORPSIM-15235): Mosfet X_MULTIPLIER_MULTIBLOCK0_FULLADDER0_U1.X1.M1, model MODP: Ps = 0 is less than W

WARNING(ORPSIM-15235): Mosfet X_MULTIPLIER_MULTIBLOCK0_FULLADDER0_U1.X1.M2, model MODP: Pd = 0 is less than W

WARNING(ORPSIM-15235): Mosfet X_MULTIPLIER_MULTIBLOCK0_FULLADDER0_U1.X1.M2, model MODP: Ps = 0 is less than W

WARNING(ORPSIM-15235): Mosfet X_MULTIPLIER_MULTIBLOCK0_FULLADDER1_U1.X1.M1, model MODP: Pd = 0 is less than W

WARNING(ORPSIM-15235): Mosfet X_MULTIPLIER_MULTIBLOCK0_FULLADDER1_U1.X1.M1, model MODP: Ps = 0 is less than W

WARNING(ORPSIM-15235): Mosfet X_MULTIPLIER_MULTIBLOCK0_FULLADDER1_U1.X1.M2, model MODP: Pd = 0 is less than W

WARNING(ORPSIM-15235): Mosfet X_MULTIPLIER_MULTIBLOCK0_FULLADDER1_U1.X1.M2, model MODP: Ps = 0 is less than W

WARNING(ORPSIM-15235): Mosfet X_MULTIPLIER_MULTIBLOCK0_FULLADDER2_U1.X1.M1, model MODP: Pd = 0 is less than W

WARNING(ORPSIM-15235): Mosfet X_MULTIPLIER_MULTIBLOCK0_FULLADDER2_U1.X1.M1, model MODP: Ps = 0 is less than W

WARNING(ORPSIM-15235): Mosfet X_MULTIPLIER_MULTIBLOCK0_FULLADDER2_U1.X1.M2, model MODP: Pd = 0 is less than W

WARNING(ORPSIM-15235): Mosfet X_MULTIPLIER_MULTIBLOCK0_FULLADDER2_U1.X1.M2, model MODP: Ps = 0 is less than W

WARNING(ORPSIM-15235): Mosfet X_MULTIPLIER_MULTIBLOCK1_FULLADDER0_U1.X1.M1, model MODP: Pd = 0 is less than W

WARNING(ORPSIM-15235): Mosfet X_MULTIPLIER_MULTIBLOCK1_FULLADDER0_U1.X1.M1, model MODP: Ps = 0 is less than W

WARNING(ORPSIM-15235): Mosfet X_MULTIPLIER_MULTIBLOCK1_FULLADDER0_U1.X1.M2, model MODP: Pd = 0 is less than W

WARNING(ORPSIM-15235): Mosfet X_MULTIPLIER_MULTIBLOCK1_FULLADDER0_U1.X1.M2, model MODP: Ps = 0 is less than W

WARNING(ORPSIM-15235): Mosfet X_MULTIPLIER_MULTIBLOCK1_FULLADDER1_U1.X1.M1, model MODP: Pd = 0 is less than W

WARNING(ORPSIM-15235): Mosfet X_MULTIPLIER_MULTIBLOCK1_FULLADDER1_U1.X1.M1, model MODP: Ps = 0 is less than W

WARNING(ORPSIM-15235): Mosfet X_MULTIPLIER_MULTIBLOCK1_FULLADDER1_U1.X1.M2, model MODP: Pd = 0 is less than W

WARNING(ORPSIM-15235): Mosfet X_MULTIPLIER_MULTIBLOCK1_FULLADDER1_U1.X1.M2, model MODP: Ps = 0 is less than W

WARNING(ORPSIM-15235): Mosfet X_MULTIPLIER_MULTIBLOCK1_FULLADDER2_U1.X1.M1, model MODP: Pd = 0 is less than W

WARNING(ORPSIM-15235): Mosfet X_MULTIPLIER_MULTIBLOCK1_FULLADDER2_U1.X1.M1, model MODP: Ps = 0 is less than W

WARNING(ORPSIM-15235): Mosfet X_MULTIPLIER_MULTIBLOCK1_FULLADDER2_U1.X1.M2, model MODP: Pd = 0 is less than W

WARNING(ORPSIM-15235): Mosfet X_MULTIPLIER_MULTIBLOCK1_FULLADDER2_U1.X1.M2, model MODP: Ps = 0 is less than W

WARNING(ORPSIM-15235): Mosfet X_MULTIPLIER_MULTIBLOCK2_FULLADDER0_U1.X1.M3, model MODN: Pd = 0 is less than W

WARNING(ORPSIM-15235): Mosfet X_MULTIPLIER_MULTIBLOCK2_FULLADDER0_U1.X1.M3, model MODN: Ps = 0 is less than W

WARNING(ORPSIM-15235): Mosfet X_MULTIPLIER_MULTIBLOCK2_FULLADDER0_U1.X1.M4, model MODN: Pd = 0 is less than W

WARNING(ORPSIM-15235): Mosfet X_MULTIPLIER_MULTIBLOCK2_FULLADDER0_U1.X1.M4, model MODN: Ps = 0 is less than W

WARNING(ORPSIM-15235): Mosfet X_MULTIPLIER_MULTIBLOCK2_FULLADDER1_U1.X1.M3, model MODN: Pd = 0 is less than W

WARNING(ORPSIM-15235): Mosfet X_MULTIPLIER_MULTIBLOCK2_FULLADDER1_U1.X1.M3, model MODN: Ps = 0 is less than W

WARNING(ORPSIM-15235): Mosfet X_MULTIPLIER_MULTIBLOCK2_FULLADDER1_U1.X1.M4, model MODN: Pd = 0 is less than W

WARNING(ORPSIM-15235): Mosfet X_MULTIPLIER_MULTIBLOCK2_FULLADDER1_U1.X1.M4, model MODN: Ps = 0 is less than W

WARNING(ORPSIM-15235): Mosfet X_MULTIPLIER_MULTIBLOCK2_FULLADDER2_U1.X1.M3, model MODN: Pd = 0 is less than W

WARNING(ORPSIM-15235): Mosfet X_MULTIPLIER_MULTIBLOCK2_FULLADDER2_U1.X1.M3, model MODN: Ps = 0 is less than W

WARNING(ORPSIM-15235): Mosfet X_MULTIPLIER_MULTIBLOCK2_FULLADDER2_U1.X1.M4, model MODN: Pd = 0 is less than W

WARNING(ORPSIM-15235): Mosfet X_MULTIPLIER_MULTIBLOCK2_FULLADDER2_U1.X1.M4, model MODN: Ps = 0 is less than W

WARNING(ORPSIM-15235): Mosfet X_MULTIPLIER_MULTIBLOCK0_FULLADDER0_U1.X1.M3, model MODN: Pd = 0 is less than W

WARNING(ORPSIM-15235): Mosfet X_MULTIPLIER_MULTIBLOCK0_FULLADDER0_U1.X1.M3, model MODN: Ps = 0 is less than W

WARNING(ORPSIM-15235): Mosfet X_MULTIPLIER_MULTIBLOCK0_FULLADDER0_U1.X1.M4, model MODN: Pd = 0 is less than W

WARNING(ORPSIM-15235): Mosfet X_MULTIPLIER_MULTIBLOCK0_FULLADDER0_U1.X1.M4, model MODN: Ps = 0 is less than W

WARNING(ORPSIM-15235): Mosfet X_MULTIPLIER_MULTIBLOCK0_FULLADDER1_U1.X1.M3, model MODN: Pd = 0 is less than W

WARNING(ORPSIM-15235): Mosfet X_MULTIPLIER_MULTIBLOCK0_FULLADDER1_U1.X1.M3, model MODN: Ps = 0 is less than W

WARNING(ORPSIM-15235): Mosfet X_MULTIPLIER_MULTIBLOCK0_FULLADDER1_U1.X1.M4, model MODN: Pd = 0 is less than W

WARNING(ORPSIM-15235): Mosfet X_MULTIPLIER_MULTIBLOCK0_FULLADDER1_U1.X1.M4, model MODN: Ps = 0 is less than W

WARNING(ORPSIM-15235): Mosfet X_MULTIPLIER_MULTIBLOCK0_FULLADDER2_U1.X1.M3, model MODN: Pd = 0 is less than W

WARNING(ORPSIM-15235): Mosfet X_MULTIPLIER_MULTIBLOCK0_FULLADDER2_U1.X1.M3, model MODN: Ps = 0 is less than W

WARNING(ORPSIM-15235): Mosfet X_MULTIPLIER_MULTIBLOCK0_FULLADDER2_U1.X1.M4, model MODN: Pd = 0 is less than W

WARNING(ORPSIM-15235): Mosfet X_MULTIPLIER_MULTIBLOCK0_FULLADDER2_U1.X1.M4, model MODN: Ps = 0 is less than W

WARNING(ORPSIM-15235): Mosfet X_MULTIPLIER_MULTIBLOCK1_FULLADDER0_U1.X1.M3, model MODN: Pd = 0 is less than W

WARNING(ORPSIM-15235): Mosfet X_MULTIPLIER_MULTIBLOCK1_FULLADDER0_U1.X1.M3, model MODN: Ps = 0 is less than W

WARNING(ORPSIM-15235): Mosfet X_MULTIPLIER_MULTIBLOCK1_FULLADDER0_U1.X1.M4, model MODN: Pd = 0 is less than W

WARNING(ORPSIM-15235): Mosfet X_MULTIPLIER_MULTIBLOCK1_FULLADDER0_U1.X1.M4, model MODN: Ps = 0 is less than W

WARNING(ORPSIM-15235): Mosfet X_MULTIPLIER_MULTIBLOCK1_FULLADDER1_U1.X1.M3, model MODN: Pd = 0 is less than W

WARNING(ORPSIM-15235): Mosfet X_MULTIPLIER_MULTIBLOCK1_FULLADDER1_U1.X1.M3, model MODN: Ps = 0 is less than W

WARNING(ORPSIM-15235): Mosfet X_MULTIPLIER_MULTIBLOCK1_FULLADDER1_U1.X1.M4, model MODN: Pd = 0 is less than W

WARNING(ORPSIM-15235): Mosfet X_MULTIPLIER_MULTIBLOCK1_FULLADDER1_U1.X1.M4, model MODN: Ps = 0 is less than W

WARNING(ORPSIM-15235): Mosfet X_MULTIPLIER_MULTIBLOCK1_FULLADDER2_U1.X1.M3, model MODN: Pd = 0 is less than W

WARNING(ORPSIM-15235): Mosfet X_MULTIPLIER_MULTIBLOCK1_FULLADDER2_U1.X1.M3, model MODN: Ps = 0 is less than W

WARNING(ORPSIM-15235): Mosfet X_MULTIPLIER_MULTIBLOCK1_FULLADDER2_U1.X1.M4, model MODN: Pd = 0 is less than W

WARNING(ORPSIM-15235): Mosfet X_MULTIPLIER_MULTIBLOCK1_FULLADDER2_U1.X1.M4, model MODN: Ps = 0 is less than W

INFO(ORPSIM-15454): Model MODP: Using BSIM VERSION 3.1 or lower

INFO(ORPSIM-15454): Model MODN: Using BSIM VERSION 3.1 or lower

**** 10/10/15 18:10:13 ***** PSpice 16.6.0 (October 2012) ***** ID# 0 ********

 ** Profile: "Newbench-Newbench"  [ h:\d2\multiplierunsigned\multiplierunsigned-PSpiceFiles\Newbench\Newbench.sim ] 


 ****     MOSFET MODEL PARAMETERS


******************************************************************************




               MODP            MODN            
               PMOS            NMOS            
       LEVEL    7               7            
           L  100.000000E-06  100.000000E-06 
           W  100.000000E-06  100.000000E-06 
         VTO    -.6915           .4979       
          KP  267.202200E-06  273.516300E-06 
       GAMMA    0               0            
      LAMBDA    0               0            
         RSH  129              70            
          IS    0               0            
          JS   90.000000E-06   10.000000E-06 
          PB    1.02             .69         
        PBSW    1.02             .69         
          CJ    1.360000E-03  940.000000E-06 
        CJSW  320.000000E-12  250.000000E-12 
          MJ     .56             .34         
        MJSW     .43             .23         
        CGSO   86.000000E-12  120.000000E-12 
        CGDO   86.000000E-12  130.000000E-12 
        CGBO  110.000000E-12  110.000000E-12 
         TOX    7.754000E-09    7.575000E-09 
          XJ  300.000000E-09  300.000000E-09 
       UCRIT   10.000000E+03   10.000000E+03 
       DELTA     .01             .01442      
          KF    8.500000E-27    5.100000E-27 
          AF    1.48            1.36         
      DIOMOD    2               2            
          K1     .59959          .50296      
          K2    -.06038          .033985     
        LETA    0               0            
        WETA    0               0            
          U0  148.2           475.8          
       XPART    1               1            
        VTH0    -.6915           .4979       
          K3   11.03           -1.136        
          W0  100.000000E-12  267.300000E-09 
         NLX  177.000000E-09  188.800000E-09 
        DVT0    1.65           50            
        DVT1     .3868          1.039        
          UA  539.400000E-12    4.705000E-12 
          UB    1.053000E-18    2.137000E-18 
          UC   10.000000E-21   10.000000E-21 
        VSAT  115.800000E+03  133.800000E+03 
        RDSW    1.033000E+03  344.9          
        VOFF    -.117           -.08925      
     NFACTOR    1.214            .4136       
        CDSC    2.589000E-03    0            
        PCLM    3.184            .6948       
      PDIBL1  100.000000E-06     .3571       
      PDIBL2   10.000000E-21    2.065000E-03 
       DROUT     .5              .5          
      PSCBE1    5.000000E+09  351.800000E+06 
      PSCBE2  100.000000E-06   74.910000E-06 
          A0     .585           2.541        
          A1    0               0            
          A2    1               1            
       NPEAK   92.400000E+15  261.100000E+15 
         LDD    0               0            
        LITL   83.538020E-09   82.568160E-09 
         KT1    -.5403          -.3302       
         UA1    0               0            
         UB1    0               0            
         UC1    0               0            
        KETA    -.0144           .02032      
        ETA0     .248            .01415      
        ETAB   -3.917000E-03    -.1221       
         K3B    -.758           -.4399       
        DVT2     .01659        -8.375000E-03 
       CDSCB  294.300000E-06    1.500000E-03 
         CIT                  444.100000E-06 
        DSUB     .5              .5          
         UTE   -1.3            -1.8          
      MOBMOD    1               1            
      NOIMOD    3               3            
       CDSCD  437.000000E-06    1.000000E-03 
         AGS     .2468           .2408       
       DVT0W     .1879           .1089       
       DVT1W   73.350000E+03   66.710000E+03 
       DVT2W   -6.312000E-03    -.01352      
        PRWG     .1477          0            
        PRWB    -.09731         -.2416       
     PDIBLCB    1                .3222       
          B0   88.320000E-09    4.301000E-09 
        CGSL  108.000000E-12  131.000000E-12 
        CGDL  108.000000E-12  131.000000E-12 
         CLC    1.000000E-15    1.000000E-15 
        LINT  -71.300000E-09  -50.050000E-09 
        WINT   34.490000E-09   94.030000E-09 
          WW  189.400000E-18  -12.970000E-15 
         WWN    1.04                         
         WWL   -1.981000E-21   -9.411000E-21 
         DLC   24.500000E-09   30.000000E-09 
         DWC   34.490000E-09   94.030000E-09 
          CF    0               0            
        NOIA    1.520000E+18   17.300000E+18 
        NOIB    7.750000E+03   70.000000E+03 
        NOIC  500.000000E-15 -564.000000E-15 
         VTM     .025864         .025864     
     VERSION    3.1             3.1          
       PBSWG    1.02             .69         
       MJSWG     .43             .23         
       CJSWG  320.000000E-12  250.000000E-12 
       JTSCD   90.000000E-06   10.000000E-06 


**** 10/10/15 18:10:13 ***** PSpice 16.6.0 (October 2012) ***** ID# 0 ********

 ** Profile: "Newbench-Newbench"  [ h:\d2\multiplierunsigned\multiplierunsigned-PSpiceFiles\Newbench\Newbench.sim ] 


 ****     Digital Input MODEL PARAMETERS


******************************************************************************




               DINSTM          
      S0NAME 0               
       S0TSW  500.000000E-12 
       S0RLO     .5          
       S0RHI    1.000000E+03 
      S1NAME 1               
       S1TSW  500.000000E-12 
       S1RLO    1.000000E+03 
       S1RHI     .5          
      S2NAME X               
       S2TSW  500.000000E-12 
       S2RLO     .429        
       S2RHI    1.16         
      S3NAME R               
       S3TSW  500.000000E-12 
       S3RLO     .429        
       S3RHI    1.16         
      S4NAME F               
       S4TSW  500.000000E-12 
       S4RLO     .429        
       S4RHI    1.16         
      S5NAME Z               
       S5TSW  500.000000E-12 
       S5RLO    1.000000E+06 
       S5RHI    1.000000E+06 


**** 10/10/15 18:10:13 ***** PSpice 16.6.0 (October 2012) ***** ID# 0 ********

 ** Profile: "Newbench-Newbench"  [ h:\d2\multiplierunsigned\multiplierunsigned-PSpiceFiles\Newbench\Newbench.sim ] 


 ****     Digital IO  MODEL PARAMETERS


******************************************************************************




               IO_STM          
        DRVL    0            
        DRVH    0            
       DtoA1 DtoA_STM        
       DtoA2 DtoA_STM        
       DtoA3 DtoA_STM        
       DtoA4 DtoA_STM        
       TPWRT  100.000000E+03 


WARNING(ORPSIM-15235): Mosfet X_MULTIPLIER_MULTIBLOCK2_FULLADDER0_U1.X1.M1, model MODP: Pd = 0 is less than W

WARNING(ORPSIM-15235): Mosfet X_MULTIPLIER_MULTIBLOCK2_FULLADDER0_U1.X1.M1, model MODP: Ps = 0 is less than W

WARNING(ORPSIM-15235): Mosfet X_MULTIPLIER_MULTIBLOCK2_FULLADDER0_U1.X1.M3, model MODN: Pd = 0 is less than W

WARNING(ORPSIM-15235): Mosfet X_MULTIPLIER_MULTIBLOCK2_FULLADDER0_U1.X1.M3, model MODN: Ps = 0 is less than W

**** 10/10/15 18:10:13 ***** PSpice 16.6.0 (October 2012) ***** ID# 0 ********

 ** Profile: "Newbench-Newbench"  [ h:\d2\multiplierunsigned\multiplierunsigned-PSpiceFiles\Newbench\Newbench.sim ] 


 ****     INITIAL TRANSIENT SOLUTION       TEMPERATURE =   27.000 DEG C


******************************************************************************



 NODE   VOLTAGE     NODE   VOLTAGE     NODE   VOLTAGE     NODE   VOLTAGE


(  GND)    0.0000  (  VDD)    3.3000  (N02457) 6.134E-09 (N02463)    3.3000     

(N02469)    3.3000 (N02475)    3.3000 (N02481)    3.3000 (N02487) 11.13E-09     

(N02493) 11.13E-09 (N02499) 6.134E-09 ($G_DGND)    0.0000                       

($G_DPWR)    5.0000                   (N023590)     .0016                       

(N023591)    3.2984                   (N023592)     .0016                       

(N023593)    3.2984                   (N023594)    3.2984                       

(N023595)    3.2984                   (N023596)     .0016                       

(N023597)     .0016                   (MULTIPLIER_N02858) 6.134E-09             

(MULTIPLIER_N02920)-4.104E-18         (MULTIPLIER_N02924) 6.134E-09             

(MULTIPLIER_N02928) 6.134E-09         (MULTIPLIER_N03709)    3.3000             

(MULTIPLIER_N03713) 11.13E-09         (MULTIPLIER_N03717) 11.13E-09             

(MULTIPLIER_N03721) 6.134E-09         (MULTIPLIER_N03841) 11.13E-09             

(MULTIPLIER_N03845) 6.134E-09         (MULTIPLIER_N03849) 11.13E-09             

(MULTIPLIER_N03853) 11.13E-09         (MULTIPLIER_AND0_N000402)    3.3000       

(MULTIPLIER_AND1_N000402)    3.3000   (MULTIPLIER_AND2_N000402)    3.3000       

(MULTIPLIER_AND3_N000402)    3.3000   (X_MULTIPLIER_U7.X1._net1)    3.3000      

(MULTIPLIER_MULTIBLOCK0_N00083) 6.134E-09                                       

(MULTIPLIER_MULTIBLOCK0_N00087) 6.134E-09                                       

(MULTIPLIER_MULTIBLOCK0_N00091) 6.134E-09                                       

(MULTIPLIER_MULTIBLOCK0_N00319)    3.3000                                       

(MULTIPLIER_MULTIBLOCK0_N00323)    3.3000                                       

(MULTIPLIER_MULTIBLOCK0_N00327) 6.134E-09                                       

(MULTIPLIER_MULTIBLOCK0_N00331) 6.134E-09                                       

(MULTIPLIER_MULTIBLOCK1_N00083) 6.134E-09                                       

(MULTIPLIER_MULTIBLOCK1_N00087) 6.134E-09                                       

(MULTIPLIER_MULTIBLOCK1_N00091) 6.134E-09                                       

(MULTIPLIER_MULTIBLOCK1_N00319) 6.134E-09                                       

(MULTIPLIER_MULTIBLOCK1_N00323) 6.134E-09                                       

(MULTIPLIER_MULTIBLOCK1_N00327) 6.134E-09                                       

(MULTIPLIER_MULTIBLOCK1_N00331) 6.134E-09                                       

(MULTIPLIER_MULTIBLOCK2_N00083) 6.134E-09                                       

(MULTIPLIER_MULTIBLOCK2_N00087) 6.134E-09                                       

(MULTIPLIER_MULTIBLOCK2_N00091) 6.134E-09                                       

(MULTIPLIER_MULTIBLOCK2_N00319)    3.3000                                       

(MULTIPLIER_MULTIBLOCK2_N00323)    3.3000                                       

(MULTIPLIER_MULTIBLOCK2_N00327) 6.134E-09                                       

(MULTIPLIER_MULTIBLOCK2_N00331) 6.134E-09                                       

(X_MULTIPLIER_AND0_U1.X1._net1)    2.6837                                       

(X_MULTIPLIER_AND1_U1.X1._net1)     .0191                                       

(X_MULTIPLIER_AND2_U1.X1._net1)     .0191                                       

(X_MULTIPLIER_AND3_U1.X1._net1)    2.6837                                       

(MULTIPLIER_MULTIBLOCK0_AND0_N000402) 23.51E-09                                 

(MULTIPLIER_MULTIBLOCK0_AND1_N000402) 23.51E-09                                 

(MULTIPLIER_MULTIBLOCK0_AND2_N000402)    3.3000                                 

(MULTIPLIER_MULTIBLOCK0_AND3_N000402)    3.3000                                 

(MULTIPLIER_MULTIBLOCK1_AND0_N000402)    3.3000                                 

(MULTIPLIER_MULTIBLOCK1_AND1_N000402)    3.3000                                 

(MULTIPLIER_MULTIBLOCK1_AND2_N000402)    3.3000                                 

(MULTIPLIER_MULTIBLOCK1_AND3_N000402)    3.3000                                 

(MULTIPLIER_MULTIBLOCK2_AND0_N000402) 23.51E-09                                 

(MULTIPLIER_MULTIBLOCK2_AND1_N000402) 23.51E-09                                 

(MULTIPLIER_MULTIBLOCK2_AND2_N000402)    3.3000                                 

(MULTIPLIER_MULTIBLOCK2_AND3_N000402)    3.3000                                 

(MULTIPLIER_MULTIBLOCK0_FULLADDER0_N00347) 6.134E-09                            

(MULTIPLIER_MULTIBLOCK0_FULLADDER0_N00847) 6.134E-09                            

(MULTIPLIER_MULTIBLOCK0_FULLADDER0_N00976)    3.3000                            

(MULTIPLIER_MULTIBLOCK0_FULLADDER1_N00347) 6.134E-09                            

(MULTIPLIER_MULTIBLOCK0_FULLADDER1_N00847) 6.134E-09                            

(MULTIPLIER_MULTIBLOCK0_FULLADDER1_N00976) 11.13E-09                            

(MULTIPLIER_MULTIBLOCK0_FULLADDER2_N00347) 6.134E-09                            

(MULTIPLIER_MULTIBLOCK0_FULLADDER2_N00847) 6.134E-09                            

(MULTIPLIER_MULTIBLOCK0_FULLADDER2_N00976) 11.13E-09                            

(MULTIPLIER_MULTIBLOCK0_HALFADDER0_N00228)    3.3000                            

(MULTIPLIER_MULTIBLOCK1_FULLADDER0_N00347) 6.134E-09                            

(MULTIPLIER_MULTIBLOCK1_FULLADDER0_N00847) 6.134E-09                            

(MULTIPLIER_MULTIBLOCK1_FULLADDER0_N00976) 11.13E-09                            

(MULTIPLIER_MULTIBLOCK1_FULLADDER1_N00347) 6.134E-09                            

(MULTIPLIER_MULTIBLOCK1_FULLADDER1_N00847) 6.134E-09                            

(MULTIPLIER_MULTIBLOCK1_FULLADDER1_N00976) 11.13E-09                            

(MULTIPLIER_MULTIBLOCK1_FULLADDER2_N00347) 6.134E-09                            

(MULTIPLIER_MULTIBLOCK1_FULLADDER2_N00847) 6.134E-09                            

(MULTIPLIER_MULTIBLOCK1_FULLADDER2_N00976) 11.13E-09                            

(MULTIPLIER_MULTIBLOCK1_HALFADDER0_N00228)    3.3000                            

(MULTIPLIER_MULTIBLOCK2_FULLADDER0_N00347) 6.134E-09                            

(MULTIPLIER_MULTIBLOCK2_FULLADDER0_N00847) 6.134E-09                            

(MULTIPLIER_MULTIBLOCK2_FULLADDER0_N00976)    3.3000                            

(MULTIPLIER_MULTIBLOCK2_FULLADDER1_N00347) 6.134E-09                            

(MULTIPLIER_MULTIBLOCK2_FULLADDER1_N00847) 6.134E-09                            

(MULTIPLIER_MULTIBLOCK2_FULLADDER1_N00976) 11.13E-09                            

(MULTIPLIER_MULTIBLOCK2_FULLADDER2_N00347) 6.134E-09                            

(MULTIPLIER_MULTIBLOCK2_FULLADDER2_N00847) 6.134E-09                            

(MULTIPLIER_MULTIBLOCK2_FULLADDER2_N00976) 11.13E-09                            

(MULTIPLIER_MULTIBLOCK2_HALFADDER0_N00228)    3.3000                            

(MULTIPLIER_MULTIBLOCK0_FULLADDER0_N000862)    3.3000                           

(MULTIPLIER_MULTIBLOCK0_FULLADDER1_N000862)    3.3000                           

(MULTIPLIER_MULTIBLOCK0_FULLADDER2_N000862)    3.3000                           

(MULTIPLIER_MULTIBLOCK1_FULLADDER0_N000862)    3.3000                           

(MULTIPLIER_MULTIBLOCK1_FULLADDER1_N000862)    3.3000                           

(MULTIPLIER_MULTIBLOCK1_FULLADDER2_N000862)    3.3000                           

(MULTIPLIER_MULTIBLOCK2_FULLADDER0_N000862)    3.3000                           

(MULTIPLIER_MULTIBLOCK2_FULLADDER1_N000862)    3.3000                           

(MULTIPLIER_MULTIBLOCK2_FULLADDER2_N000862)    3.3000                           

(X_MULTIPLIER_MULTIBLOCK0_AND0_U1.X1._net1) 11.75E-09                           

(X_MULTIPLIER_MULTIBLOCK0_AND1_U1.X1._net1) 11.75E-09                           

(X_MULTIPLIER_MULTIBLOCK0_AND2_U1.X1._net1) 286.9E-12                           

(X_MULTIPLIER_MULTIBLOCK0_AND3_U1.X1._net1) 286.9E-12                           

(X_MULTIPLIER_MULTIBLOCK1_AND0_U1.X1._net1)    2.6837                           

(X_MULTIPLIER_MULTIBLOCK1_AND1_U1.X1._net1)    2.6837                           

(X_MULTIPLIER_MULTIBLOCK1_AND2_U1.X1._net1)     .0191                           

(X_MULTIPLIER_MULTIBLOCK1_AND3_U1.X1._net1)     .0191                           

(X_MULTIPLIER_MULTIBLOCK2_AND0_U1.X1._net1) 11.75E-09                           

(X_MULTIPLIER_MULTIBLOCK2_AND1_U1.X1._net1) 11.75E-09                           

(X_MULTIPLIER_MULTIBLOCK2_AND2_U1.X1._net1) 286.9E-12                           

(X_MULTIPLIER_MULTIBLOCK2_AND3_U1.X1._net1) 286.9E-12                           

(X_MULTIPLIER_MULTIBLOCK0_FULLADDER0_U1.X1.6)    3.3000                         

(X_MULTIPLIER_MULTIBLOCK0_FULLADDER1_U1.X1.6)    3.3000                         

(X_MULTIPLIER_MULTIBLOCK0_FULLADDER2_U1.X1.6)    3.3000                         

(X_MULTIPLIER_MULTIBLOCK1_FULLADDER0_U1.X1.6)    3.3000                         

(X_MULTIPLIER_MULTIBLOCK1_FULLADDER1_U1.X1.6)    3.3000                         

(X_MULTIPLIER_MULTIBLOCK1_FULLADDER2_U1.X1.6)    3.3000                         

(X_MULTIPLIER_MULTIBLOCK2_FULLADDER0_U1.X1.6)    3.3000                         

(X_MULTIPLIER_MULTIBLOCK2_FULLADDER1_U1.X1.6)    3.3000                         

(X_MULTIPLIER_MULTIBLOCK2_FULLADDER2_U1.X1.6)    3.3000                         

(MULTIPLIER_MULTIBLOCK0_FULLADDER0_AND1_N000402)    3.3000                      

(MULTIPLIER_MULTIBLOCK0_FULLADDER0_AND2_N000402)    3.3000                      

(MULTIPLIER_MULTIBLOCK0_FULLADDER1_AND1_N000402)    3.3000                      

(MULTIPLIER_MULTIBLOCK0_FULLADDER1_AND2_N000402)    3.3000                      

(MULTIPLIER_MULTIBLOCK0_FULLADDER2_AND1_N000402)    3.3000                      

(MULTIPLIER_MULTIBLOCK0_FULLADDER2_AND2_N000402)    3.3000                      

(MULTIPLIER_MULTIBLOCK1_FULLADDER0_AND1_N000402)    3.3000                      

(MULTIPLIER_MULTIBLOCK1_FULLADDER0_AND2_N000402)    3.3000                      

(MULTIPLIER_MULTIBLOCK1_FULLADDER1_AND1_N000402)    3.3000                      

(MULTIPLIER_MULTIBLOCK1_FULLADDER1_AND2_N000402)    3.3000                      

(MULTIPLIER_MULTIBLOCK1_FULLADDER2_AND1_N000402)    3.3000                      

(MULTIPLIER_MULTIBLOCK1_FULLADDER2_AND2_N000402)    3.3000                      

(MULTIPLIER_MULTIBLOCK2_FULLADDER0_AND1_N000402)    3.3000                      

(MULTIPLIER_MULTIBLOCK2_FULLADDER0_AND2_N000402)    3.3000                      

(MULTIPLIER_MULTIBLOCK2_FULLADDER1_AND1_N000402)    3.3000                      

(MULTIPLIER_MULTIBLOCK2_FULLADDER1_AND2_N000402)    3.3000                      

(MULTIPLIER_MULTIBLOCK2_FULLADDER2_AND1_N000402)    3.3000                      

(MULTIPLIER_MULTIBLOCK2_FULLADDER2_AND2_N000402)    3.3000                      

(X_MULTIPLIER_MULTIBLOCK0_FULLADDER0_U3.X1._net1)    3.3000                     

(X_MULTIPLIER_MULTIBLOCK0_FULLADDER0_U3.X1._net3) 32.99E-09                     

(X_MULTIPLIER_MULTIBLOCK0_FULLADDER0_U4.X1._net1)    3.3000                     

(X_MULTIPLIER_MULTIBLOCK0_FULLADDER0_U4.X1._net3) 32.99E-09                     

(X_MULTIPLIER_MULTIBLOCK0_FULLADDER1_U3.X1._net1)    3.3000                     

(X_MULTIPLIER_MULTIBLOCK0_FULLADDER1_U3.X1._net3)    3.3000                     

(X_MULTIPLIER_MULTIBLOCK0_FULLADDER1_U4.X1._net1)    3.3000                     

(X_MULTIPLIER_MULTIBLOCK0_FULLADDER1_U4.X1._net3)    3.3000                     

(X_MULTIPLIER_MULTIBLOCK0_FULLADDER2_U3.X1._net1)    3.3000                     

(X_MULTIPLIER_MULTIBLOCK0_FULLADDER2_U3.X1._net3)    3.3000                     

(X_MULTIPLIER_MULTIBLOCK0_FULLADDER2_U4.X1._net1)    3.3000                     

(X_MULTIPLIER_MULTIBLOCK0_FULLADDER2_U4.X1._net3)    3.3000                     

(X_MULTIPLIER_MULTIBLOCK0_HALFADDER0_U3.X1._net1)    3.3000                     

(X_MULTIPLIER_MULTIBLOCK0_HALFADDER0_U3.X1._net3) 32.99E-09                     

(X_MULTIPLIER_MULTIBLOCK0_HALFADDER0_U4.X1._net1)    2.6851                     

(X_MULTIPLIER_MULTIBLOCK1_FULLADDER0_U3.X1._net1)    3.3000                     

(X_MULTIPLIER_MULTIBLOCK1_FULLADDER0_U3.X1._net3)    3.3000                     

(X_MULTIPLIER_MULTIBLOCK1_FULLADDER0_U4.X1._net1)    3.3000                     

(X_MULTIPLIER_MULTIBLOCK1_FULLADDER0_U4.X1._net3)    3.3000                     

(X_MULTIPLIER_MULTIBLOCK1_FULLADDER1_U3.X1._net1)    3.3000                     

(X_MULTIPLIER_MULTIBLOCK1_FULLADDER1_U3.X1._net3)    3.3000                     

(X_MULTIPLIER_MULTIBLOCK1_FULLADDER1_U4.X1._net1)    3.3000                     

(X_MULTIPLIER_MULTIBLOCK1_FULLADDER1_U4.X1._net3)    3.3000                     

(X_MULTIPLIER_MULTIBLOCK1_FULLADDER2_U3.X1._net1)    3.3000                     

(X_MULTIPLIER_MULTIBLOCK1_FULLADDER2_U3.X1._net3)    3.3000                     

(X_MULTIPLIER_MULTIBLOCK1_FULLADDER2_U4.X1._net1)    3.3000                     

(X_MULTIPLIER_MULTIBLOCK1_FULLADDER2_U4.X1._net3)    3.3000                     

(X_MULTIPLIER_MULTIBLOCK1_HALFADDER0_U3.X1._net1)    3.3000                     

(X_MULTIPLIER_MULTIBLOCK1_HALFADDER0_U3.X1._net3) 12.78E-09                     

(X_MULTIPLIER_MULTIBLOCK1_HALFADDER0_U4.X1._net1) 272.5E-12                     

(X_MULTIPLIER_MULTIBLOCK2_FULLADDER0_U3.X1._net1)    3.3000                     

(X_MULTIPLIER_MULTIBLOCK2_FULLADDER0_U3.X1._net3) 32.99E-09                     

(X_MULTIPLIER_MULTIBLOCK2_FULLADDER0_U4.X1._net1)    3.3000                     

(X_MULTIPLIER_MULTIBLOCK2_FULLADDER0_U4.X1._net3) 32.99E-09                     

(X_MULTIPLIER_MULTIBLOCK2_FULLADDER1_U3.X1._net1)    3.3000                     

(X_MULTIPLIER_MULTIBLOCK2_FULLADDER1_U3.X1._net3)    3.3000                     

(X_MULTIPLIER_MULTIBLOCK2_FULLADDER1_U4.X1._net1)    3.3000                     

(X_MULTIPLIER_MULTIBLOCK2_FULLADDER1_U4.X1._net3)    3.3000                     

(X_MULTIPLIER_MULTIBLOCK2_FULLADDER2_U3.X1._net1)    3.3000                     

(X_MULTIPLIER_MULTIBLOCK2_FULLADDER2_U3.X1._net3)    3.3000                     

(X_MULTIPLIER_MULTIBLOCK2_FULLADDER2_U4.X1._net1)    3.3000                     

(X_MULTIPLIER_MULTIBLOCK2_FULLADDER2_U4.X1._net3)    3.3000                     

(X_MULTIPLIER_MULTIBLOCK2_HALFADDER0_U3.X1._net1)    3.3000                     

(X_MULTIPLIER_MULTIBLOCK2_HALFADDER0_U3.X1._net3) 32.99E-09                     

(X_MULTIPLIER_MULTIBLOCK2_HALFADDER0_U4.X1._net1)    2.6851                     

(X_MULTIPLIER_MULTIBLOCK0_FULLADDER0_U3.X1._net23)     .6755                    

(X_MULTIPLIER_MULTIBLOCK0_FULLADDER0_U3.X1._net29)    2.6851                    

(X_MULTIPLIER_MULTIBLOCK0_FULLADDER0_U4.X1._net23)     .6755                    

(X_MULTIPLIER_MULTIBLOCK0_FULLADDER0_U4.X1._net29)    2.6851                    

(X_MULTIPLIER_MULTIBLOCK0_FULLADDER1_U3.X1._net23)    3.3000                    

(X_MULTIPLIER_MULTIBLOCK0_FULLADDER1_U3.X1._net29) 3.971E-09                    

(X_MULTIPLIER_MULTIBLOCK0_FULLADDER1_U4.X1._net23)    3.3000                    

(X_MULTIPLIER_MULTIBLOCK0_FULLADDER1_U4.X1._net29) 3.976E-09                    

(X_MULTIPLIER_MULTIBLOCK0_FULLADDER2_U3.X1._net23)    3.3000                    

(X_MULTIPLIER_MULTIBLOCK0_FULLADDER2_U3.X1._net29) 3.975E-09                    

(X_MULTIPLIER_MULTIBLOCK0_FULLADDER2_U4.X1._net23)    3.3000                    

(X_MULTIPLIER_MULTIBLOCK0_FULLADDER2_U4.X1._net29) 3.976E-09                    

(X_MULTIPLIER_MULTIBLOCK0_HALFADDER0_U3.X1._net23)     .6755                    

(X_MULTIPLIER_MULTIBLOCK0_HALFADDER0_U3.X1._net29)    2.6851                    

(X_MULTIPLIER_MULTIBLOCK1_FULLADDER0_U3.X1._net23)    3.3000                    

(X_MULTIPLIER_MULTIBLOCK1_FULLADDER0_U3.X1._net29) 3.976E-09                    

(X_MULTIPLIER_MULTIBLOCK1_FULLADDER0_U4.X1._net23)    3.3000                    

(X_MULTIPLIER_MULTIBLOCK1_FULLADDER0_U4.X1._net29) 3.976E-09                    

(X_MULTIPLIER_MULTIBLOCK1_FULLADDER1_U3.X1._net23)    3.3000                    

(X_MULTIPLIER_MULTIBLOCK1_FULLADDER1_U3.X1._net29) 3.976E-09                    

(X_MULTIPLIER_MULTIBLOCK1_FULLADDER1_U4.X1._net23)    3.3000                    

(X_MULTIPLIER_MULTIBLOCK1_FULLADDER1_U4.X1._net29) 3.975E-09                    

(X_MULTIPLIER_MULTIBLOCK1_FULLADDER2_U3.X1._net23)    3.3000                    

(X_MULTIPLIER_MULTIBLOCK1_FULLADDER2_U3.X1._net29) 3.975E-09                    

(X_MULTIPLIER_MULTIBLOCK1_FULLADDER2_U4.X1._net23)    3.3000                    

(X_MULTIPLIER_MULTIBLOCK1_FULLADDER2_U4.X1._net29) 3.976E-09                    

(X_MULTIPLIER_MULTIBLOCK1_HALFADDER0_U3.X1._net23)    3.3000                    

(X_MULTIPLIER_MULTIBLOCK1_HALFADDER0_U3.X1._net29) 272.5E-12                    

(X_MULTIPLIER_MULTIBLOCK2_FULLADDER0_U3.X1._net23)     .6755                    

(X_MULTIPLIER_MULTIBLOCK2_FULLADDER0_U3.X1._net29)    2.6851                    

(X_MULTIPLIER_MULTIBLOCK2_FULLADDER0_U4.X1._net23)     .6755                    

(X_MULTIPLIER_MULTIBLOCK2_FULLADDER0_U4.X1._net29)    2.6851                    

(X_MULTIPLIER_MULTIBLOCK2_FULLADDER1_U3.X1._net23)    3.3000                    

(X_MULTIPLIER_MULTIBLOCK2_FULLADDER1_U3.X1._net29) 3.975E-09                    

(X_MULTIPLIER_MULTIBLOCK2_FULLADDER1_U4.X1._net23)    3.3000                    

(X_MULTIPLIER_MULTIBLOCK2_FULLADDER1_U4.X1._net29) 3.971E-09                    

(X_MULTIPLIER_MULTIBLOCK2_FULLADDER2_U3.X1._net23)    3.3000                    

(X_MULTIPLIER_MULTIBLOCK2_FULLADDER2_U3.X1._net29) 3.976E-09                    

(X_MULTIPLIER_MULTIBLOCK2_FULLADDER2_U4.X1._net23)    3.3000                    

(X_MULTIPLIER_MULTIBLOCK2_FULLADDER2_U4.X1._net29) 3.975E-09                    

(X_MULTIPLIER_MULTIBLOCK2_HALFADDER0_U3.X1._net23)     .6755                    

(X_MULTIPLIER_MULTIBLOCK2_HALFADDER0_U3.X1._net29)    2.6851                    

(X_MULTIPLIER_MULTIBLOCK0_FULLADDER0_AND1_U1.X1._net1)    2.6851                

(X_MULTIPLIER_MULTIBLOCK0_FULLADDER0_AND2_U1.X1._net1)    2.6851                

(X_MULTIPLIER_MULTIBLOCK0_FULLADDER1_AND1_U1.X1._net1)     .0188                

(X_MULTIPLIER_MULTIBLOCK0_FULLADDER1_AND2_U1.X1._net1)     .0188                

(X_MULTIPLIER_MULTIBLOCK0_FULLADDER2_AND1_U1.X1._net1)     .0188                

(X_MULTIPLIER_MULTIBLOCK0_FULLADDER2_AND2_U1.X1._net1)     .0188                

(X_MULTIPLIER_MULTIBLOCK1_FULLADDER0_AND1_U1.X1._net1)     .0188                

(X_MULTIPLIER_MULTIBLOCK1_FULLADDER0_AND2_U1.X1._net1)     .0188                

(X_MULTIPLIER_MULTIBLOCK1_FULLADDER1_AND1_U1.X1._net1)     .0188                

(X_MULTIPLIER_MULTIBLOCK1_FULLADDER1_AND2_U1.X1._net1)     .0188                

(X_MULTIPLIER_MULTIBLOCK1_FULLADDER2_AND1_U1.X1._net1)     .0188                

(X_MULTIPLIER_MULTIBLOCK1_FULLADDER2_AND2_U1.X1._net1)     .0188                

(X_MULTIPLIER_MULTIBLOCK2_FULLADDER0_AND1_U1.X1._net1)    2.6851                

(X_MULTIPLIER_MULTIBLOCK2_FULLADDER0_AND2_U1.X1._net1)    2.6851                

(X_MULTIPLIER_MULTIBLOCK2_FULLADDER1_AND1_U1.X1._net1)     .0188                

(X_MULTIPLIER_MULTIBLOCK2_FULLADDER1_AND2_U1.X1._net1)     .0188                

(X_MULTIPLIER_MULTIBLOCK2_FULLADDER2_AND1_U1.X1._net1)     .0188                

(X_MULTIPLIER_MULTIBLOCK2_FULLADDER2_AND2_U1.X1._net1)     .0188            



 DGTL NODE : STATE  DGTL NODE : STATE  DGTL NODE : STATE  DGTL NODE : STATE


(N023593$DtoA) : 1                    (N023594$DtoA) : 1                        

(N023590$DtoA) : 0                    (N023595$DtoA) : 1                        

(N023596$DtoA) : 0                    (N023591$DtoA) : 1                        

( N023598) : 0     (N023592$DtoA) : 0                    (N023597$DtoA) : 0     




    VOLTAGE SOURCE CURRENTS
    NAME         CURRENT

    V_V1        -2.639E-02
    V_V2         2.639E-02
    X$DIGIFPWR.VDPWR  -5.000E-06
    X$DIGIFPWR.VDGND  -5.000E-06

    TOTAL POWER DISSIPATION   8.71E-02  WATTS



          JOB CONCLUDED

**** 10/10/15 18:10:13 ***** PSpice 16.6.0 (October 2012) ***** ID# 0 ********

 ** Profile: "Newbench-Newbench"  [ h:\d2\multiplierunsigned\multiplierunsigned-PSpiceFiles\Newbench\Newbench.sim ] 


 ****     JOB STATISTICS SUMMARY


******************************************************************************



  Total job time (using Solver 1)   =         .67
