
**** 10/21/15 11:30:15 ***** PSpice 16.6.0 (October 2012) ***** ID# 0 ********

 ** Profile: "TEAMG_DESIGN_SIM-TEAMG_DESIGN_SIM"  [ H:\Documents\git\CompiledSchematic\TEAMG_DESIGN-PSpiceFiles\TEAMG_DESIGN_SIM\TEAM


 ****     CIRCUIT DESCRIPTION


******************************************************************************




** Creating circuit file "TEAMG_DESIGN_SIM.cir" 
** WARNING: THIS AUTOMATICALLY GENERATED FILE MAY BE OVERWRITTEN BY SUBSEQUENT SIMULATIONS

*Libraries: 
* Profile Libraries :
* Local Libraries :
.LIB "H:/Documents/git/libraries/schematic/d2.lib" 
* From [PSPICE NETLIST] section of C:\Users\ja6g14\AppData\Local\Temp\16.6.0/PSpice.ini file:
.lib "nom.lib" 

*Analysis directives: 
.TRAN  0 1000ns 0 
.OPTIONS ADVCONV
.PROBE64 V(alias(*)) I(alias(*)) W(alias(*)) D(alias(*)) NOISE(alias(*)) 
.INC "..\TEAMG_DESIGN_SIM.net" 



**** INCLUDING TEAMG_DESIGN_SIM.net ****
* source TEAMG_DESIGN
V_V2         GND 0 0Vdc
V_V1         VDD 0 3.3Vdc
X_TEAMG_DESIGN_TEAMG_MULTIPLIERCELL_AND0_U1        
+  TEAMG_DESIGN_TEAMG_MULTIPLIERCELL_N02739
+  TEAMG_DESIGN_TEAMG_MULTIPLIERCELL_N02862 GND
+  TEAMG_DESIGN_TEAMG_MULTIPLIERCELL_AND0_N000542 VDD NAND21_H 
X_TEAMG_DESIGN_TEAMG_MULTIPLIERCELL_AND0_U2        
+  TEAMG_DESIGN_TEAMG_MULTIPLIERCELL_AND0_N000542 GND
+  TEAMG_DESIGN_TEAMG_MULTIPLIERCELL_N02858 VDD INV1_H 
X_TEAMG_DESIGN_TEAMG_MULTIPLIERCELL_AND3_U1        
+  TEAMG_DESIGN_TEAMG_MULTIPLIERCELL_N02751
+  TEAMG_DESIGN_TEAMG_MULTIPLIERCELL_N02862 GND
+  TEAMG_DESIGN_TEAMG_MULTIPLIERCELL_AND3_N000542 VDD NAND21_H 
X_TEAMG_DESIGN_TEAMG_MULTIPLIERCELL_AND3_U2        
+  TEAMG_DESIGN_TEAMG_MULTIPLIERCELL_AND3_N000542 GND
+  TEAMG_DESIGN_TEAMG_MULTIPLIERCELL_N04051 VDD INV1_H 
X_TEAMG_DESIGN_TEAMG_MULTIPLIERCELL_AND2_U1        
+  TEAMG_DESIGN_TEAMG_MULTIPLIERCELL_N02715
+  TEAMG_DESIGN_TEAMG_MULTIPLIERCELL_N02862 GND
+  TEAMG_DESIGN_TEAMG_MULTIPLIERCELL_AND2_N000542 VDD NAND21_H 
X_TEAMG_DESIGN_TEAMG_MULTIPLIERCELL_AND2_U2        
+  TEAMG_DESIGN_TEAMG_MULTIPLIERCELL_AND2_N000542 GND
+  TEAMG_DESIGN_TEAMG_MULTIPLIERCELL_N02924 VDD INV1_H 
X_TEAMG_DESIGN_TEAMG_MULTIPLIERCELL_MULTIBLOCK0_AND3_U1        
+  TEAMG_DESIGN_TEAMG_MULTIPLIERCELL_N02715
+  TEAMG_DESIGN_TEAMG_MULTIPLIERCELL_N02843 GND
+  TEAMG_DESIGN_TEAMG_MULTIPLIERCELL_MULTIBLOCK0_AND3_N000542 VDD NAND21_H 
X_TEAMG_DESIGN_TEAMG_MULTIPLIERCELL_MULTIBLOCK0_AND3_U2        
+  TEAMG_DESIGN_TEAMG_MULTIPLIERCELL_MULTIBLOCK0_AND3_N000542 GND
+  TEAMG_DESIGN_TEAMG_MULTIPLIERCELL_MULTIBLOCK0_N00331 VDD INV1_H 
X_TEAMG_DESIGN_TEAMG_MULTIPLIERCELL_MULTIBLOCK0_FULLADDER1_U2        
+  TEAMG_DESIGN_TEAMG_MULTIPLIERCELL_MULTIBLOCK0_FULLADDER1_N012310 GND
+  TEAMG_DESIGN_TEAMG_MULTIPLIERCELL_MULTIBLOCK0_N00083 VDD INV1_H 
X_TEAMG_DESIGN_TEAMG_MULTIPLIERCELL_MULTIBLOCK0_FULLADDER1_U4        
+  TEAMG_DESIGN_TEAMG_MULTIPLIERCELL_MULTIBLOCK0_N00327
+  TEAMG_DESIGN_TEAMG_MULTIPLIERCELL_N02924 GND
+  TEAMG_DESIGN_TEAMG_MULTIPLIERCELL_MULTIBLOCK0_FULLADDER1_N00976 VDD XOR21_H 
X_TEAMG_DESIGN_TEAMG_MULTIPLIERCELL_MULTIBLOCK0_FULLADDER1_AND2_U1        
+  TEAMG_DESIGN_TEAMG_MULTIPLIERCELL_MULTIBLOCK0_FULLADDER1_N00976
+  TEAMG_DESIGN_TEAMG_MULTIPLIERCELL_MULTIBLOCK0_N00087 GND
+  TEAMG_DESIGN_TEAMG_MULTIPLIERCELL_MULTIBLOCK0_FULLADDER1_AND2_N000542 VDD
+  NAND21_H 
X_TEAMG_DESIGN_TEAMG_MULTIPLIERCELL_MULTIBLOCK0_FULLADDER1_AND2_U2        
+  TEAMG_DESIGN_TEAMG_MULTIPLIERCELL_MULTIBLOCK0_FULLADDER1_AND2_N000542 GND
+  TEAMG_DESIGN_TEAMG_MULTIPLIERCELL_MULTIBLOCK0_FULLADDER1_N00347 VDD INV1_H 
X_TEAMG_DESIGN_TEAMG_MULTIPLIERCELL_MULTIBLOCK0_FULLADDER1_U3        
+  TEAMG_DESIGN_TEAMG_MULTIPLIERCELL_MULTIBLOCK0_FULLADDER1_N00976
+  TEAMG_DESIGN_TEAMG_MULTIPLIERCELL_MULTIBLOCK0_N00087 GND
+  TEAMG_DESIGN_TEAMG_MULTIPLIERCELL_N03713 VDD XOR21_H 
X_TEAMG_DESIGN_TEAMG_MULTIPLIERCELL_MULTIBLOCK0_FULLADDER1_U1        
+  TEAMG_DESIGN_TEAMG_MULTIPLIERCELL_MULTIBLOCK0_FULLADDER1_N00847
+  TEAMG_DESIGN_TEAMG_MULTIPLIERCELL_MULTIBLOCK0_FULLADDER1_N00347 GND
+  TEAMG_DESIGN_TEAMG_MULTIPLIERCELL_MULTIBLOCK0_FULLADDER1_N012310 VDD NOR21_H 
X_TEAMG_DESIGN_TEAMG_MULTIPLIERCELL_MULTIBLOCK0_FULLADDER1_AND1_U1        
+  TEAMG_DESIGN_TEAMG_MULTIPLIERCELL_MULTIBLOCK0_N00327
+  TEAMG_DESIGN_TEAMG_MULTIPLIERCELL_N02924 GND
+  TEAMG_DESIGN_TEAMG_MULTIPLIERCELL_MULTIBLOCK0_FULLADDER1_AND1_N000542 VDD
+  NAND21_H 
X_TEAMG_DESIGN_TEAMG_MULTIPLIERCELL_MULTIBLOCK0_FULLADDER1_AND1_U2        
+  TEAMG_DESIGN_TEAMG_MULTIPLIERCELL_MULTIBLOCK0_FULLADDER1_AND1_N000542 GND
+  TEAMG_DESIGN_TEAMG_MULTIPLIERCELL_MULTIBLOCK0_FULLADDER1_N00847 VDD INV1_H 
X_TEAMG_DESIGN_TEAMG_MULTIPLIERCELL_MULTIBLOCK0_FULLADDER2_U2        
+  TEAMG_DESIGN_TEAMG_MULTIPLIERCELL_MULTIBLOCK0_FULLADDER2_N012310 GND
+  TEAMG_DESIGN_TEAMG_MULTIPLIERCELL_N03721 VDD INV1_H 
X_TEAMG_DESIGN_TEAMG_MULTIPLIERCELL_MULTIBLOCK0_FULLADDER2_U4        
+  TEAMG_DESIGN_TEAMG_MULTIPLIERCELL_MULTIBLOCK0_N00331
+  TEAMG_DESIGN_TEAMG_MULTIPLIERCELL_N02920 GND
+  TEAMG_DESIGN_TEAMG_MULTIPLIERCELL_MULTIBLOCK0_FULLADDER2_N00976 VDD XOR21_H 
X_TEAMG_DESIGN_TEAMG_MULTIPLIERCELL_MULTIBLOCK0_FULLADDER2_AND2_U1        
+  TEAMG_DESIGN_TEAMG_MULTIPLIERCELL_MULTIBLOCK0_FULLADDER2_N00976
+  TEAMG_DESIGN_TEAMG_MULTIPLIERCELL_MULTIBLOCK0_N00083 GND
+  TEAMG_DESIGN_TEAMG_MULTIPLIERCELL_MULTIBLOCK0_FULLADDER2_AND2_N000542 VDD
+  NAND21_H 
X_TEAMG_DESIGN_TEAMG_MULTIPLIERCELL_MULTIBLOCK0_FULLADDER2_AND2_U2        
+  TEAMG_DESIGN_TEAMG_MULTIPLIERCELL_MULTIBLOCK0_FULLADDER2_AND2_N000542 GND
+  TEAMG_DESIGN_TEAMG_MULTIPLIERCELL_MULTIBLOCK0_FULLADDER2_N00347 VDD INV1_H 
X_TEAMG_DESIGN_TEAMG_MULTIPLIERCELL_MULTIBLOCK0_FULLADDER2_U3        
+  TEAMG_DESIGN_TEAMG_MULTIPLIERCELL_MULTIBLOCK0_FULLADDER2_N00976
+  TEAMG_DESIGN_TEAMG_MULTIPLIERCELL_MULTIBLOCK0_N00083 GND
+  TEAMG_DESIGN_TEAMG_MULTIPLIERCELL_N03717 VDD XOR21_H 
X_TEAMG_DESIGN_TEAMG_MULTIPLIERCELL_MULTIBLOCK0_FULLADDER2_U1        
+  TEAMG_DESIGN_TEAMG_MULTIPLIERCELL_MULTIBLOCK0_FULLADDER2_N00847
+  TEAMG_DESIGN_TEAMG_MULTIPLIERCELL_MULTIBLOCK0_FULLADDER2_N00347 GND
+  TEAMG_DESIGN_TEAMG_MULTIPLIERCELL_MULTIBLOCK0_FULLADDER2_N012310 VDD NOR21_H 
X_TEAMG_DESIGN_TEAMG_MULTIPLIERCELL_MULTIBLOCK0_FULLADDER2_AND1_U1        
+  TEAMG_DESIGN_TEAMG_MULTIPLIERCELL_MULTIBLOCK0_N00331
+  TEAMG_DESIGN_TEAMG_MULTIPLIERCELL_N02920 GND
+  TEAMG_DESIGN_TEAMG_MULTIPLIERCELL_MULTIBLOCK0_FULLADDER2_AND1_N000542 VDD
+  NAND21_H 
X_TEAMG_DESIGN_TEAMG_MULTIPLIERCELL_MULTIBLOCK0_FULLADDER2_AND1_U2        
+  TEAMG_DESIGN_TEAMG_MULTIPLIERCELL_MULTIBLOCK0_FULLADDER2_AND1_N000542 GND
+  TEAMG_DESIGN_TEAMG_MULTIPLIERCELL_MULTIBLOCK0_FULLADDER2_N00847 VDD INV1_H 
X_TEAMG_DESIGN_TEAMG_MULTIPLIERCELL_MULTIBLOCK0_HALFADDER0_U4        
+  TEAMG_DESIGN_TEAMG_MULTIPLIERCELL_MULTIBLOCK0_N00319
+  TEAMG_DESIGN_TEAMG_MULTIPLIERCELL_N02858 GND
+  TEAMG_DESIGN_TEAMG_MULTIPLIERCELL_MULTIBLOCK0_HALFADDER0_N00228 VDD NAND21_H 
X_TEAMG_DESIGN_TEAMG_MULTIPLIERCELL_MULTIBLOCK0_HALFADDER0_U2        
+  TEAMG_DESIGN_TEAMG_MULTIPLIERCELL_MULTIBLOCK0_HALFADDER0_N00228 GND
+  TEAMG_DESIGN_TEAMG_MULTIPLIERCELL_MULTIBLOCK0_N00091 VDD INV1_H 
X_TEAMG_DESIGN_TEAMG_MULTIPLIERCELL_MULTIBLOCK0_HALFADDER0_U3        
+  TEAMG_DESIGN_TEAMG_MULTIPLIERCELL_MULTIBLOCK0_N00319
+  TEAMG_DESIGN_TEAMG_MULTIPLIERCELL_N02858 GND
+  TEAMG_DESIGN_TEAMG_MULTIPLIERCELL_N04055 VDD XOR21_H 
X_TEAMG_DESIGN_TEAMG_MULTIPLIERCELL_MULTIBLOCK0_AND0_U1        
+  TEAMG_DESIGN_TEAMG_MULTIPLIERCELL_N02751
+  TEAMG_DESIGN_TEAMG_MULTIPLIERCELL_N02843 GND
+  TEAMG_DESIGN_TEAMG_MULTIPLIERCELL_MULTIBLOCK0_AND0_N000542 VDD NAND21_H 
X_TEAMG_DESIGN_TEAMG_MULTIPLIERCELL_MULTIBLOCK0_AND0_U2        
+  TEAMG_DESIGN_TEAMG_MULTIPLIERCELL_MULTIBLOCK0_AND0_N000542 GND
+  TEAMG_DESIGN_TEAMG_MULTIPLIERCELL_MULTIBLOCK0_N00319 VDD INV1_H 
X_TEAMG_DESIGN_TEAMG_MULTIPLIERCELL_MULTIBLOCK0_AND1_U1        
+  TEAMG_DESIGN_TEAMG_MULTIPLIERCELL_N02739
+  TEAMG_DESIGN_TEAMG_MULTIPLIERCELL_N02843 GND
+  TEAMG_DESIGN_TEAMG_MULTIPLIERCELL_MULTIBLOCK0_AND1_N000542 VDD NAND21_H 
X_TEAMG_DESIGN_TEAMG_MULTIPLIERCELL_MULTIBLOCK0_AND1_U2        
+  TEAMG_DESIGN_TEAMG_MULTIPLIERCELL_MULTIBLOCK0_AND1_N000542 GND
+  TEAMG_DESIGN_TEAMG_MULTIPLIERCELL_MULTIBLOCK0_N00323 VDD INV1_H 
X_TEAMG_DESIGN_TEAMG_MULTIPLIERCELL_MULTIBLOCK0_FULLADDER0_U2        
+  TEAMG_DESIGN_TEAMG_MULTIPLIERCELL_MULTIBLOCK0_FULLADDER0_N012310 GND
+  TEAMG_DESIGN_TEAMG_MULTIPLIERCELL_MULTIBLOCK0_N00087 VDD INV1_H 
X_TEAMG_DESIGN_TEAMG_MULTIPLIERCELL_MULTIBLOCK0_FULLADDER0_U4        
+  TEAMG_DESIGN_TEAMG_MULTIPLIERCELL_MULTIBLOCK0_N00323
+  TEAMG_DESIGN_TEAMG_MULTIPLIERCELL_N02928 GND
+  TEAMG_DESIGN_TEAMG_MULTIPLIERCELL_MULTIBLOCK0_FULLADDER0_N00976 VDD XOR21_H 
X_TEAMG_DESIGN_TEAMG_MULTIPLIERCELL_MULTIBLOCK0_FULLADDER0_AND2_U1        
+  TEAMG_DESIGN_TEAMG_MULTIPLIERCELL_MULTIBLOCK0_FULLADDER0_N00976
+  TEAMG_DESIGN_TEAMG_MULTIPLIERCELL_MULTIBLOCK0_N00091 GND
+  TEAMG_DESIGN_TEAMG_MULTIPLIERCELL_MULTIBLOCK0_FULLADDER0_AND2_N000542 VDD
+  NAND21_H 
X_TEAMG_DESIGN_TEAMG_MULTIPLIERCELL_MULTIBLOCK0_FULLADDER0_AND2_U2        
+  TEAMG_DESIGN_TEAMG_MULTIPLIERCELL_MULTIBLOCK0_FULLADDER0_AND2_N000542 GND
+  TEAMG_DESIGN_TEAMG_MULTIPLIERCELL_MULTIBLOCK0_FULLADDER0_N00347 VDD INV1_H 
X_TEAMG_DESIGN_TEAMG_MULTIPLIERCELL_MULTIBLOCK0_FULLADDER0_U3        
+  TEAMG_DESIGN_TEAMG_MULTIPLIERCELL_MULTIBLOCK0_FULLADDER0_N00976
+  TEAMG_DESIGN_TEAMG_MULTIPLIERCELL_MULTIBLOCK0_N00091 GND
+  TEAMG_DESIGN_TEAMG_MULTIPLIERCELL_N03709 VDD XOR21_H 
X_TEAMG_DESIGN_TEAMG_MULTIPLIERCELL_MULTIBLOCK0_FULLADDER0_U1        
+  TEAMG_DESIGN_TEAMG_MULTIPLIERCELL_MULTIBLOCK0_FULLADDER0_N00847
+  TEAMG_DESIGN_TEAMG_MULTIPLIERCELL_MULTIBLOCK0_FULLADDER0_N00347 GND
+  TEAMG_DESIGN_TEAMG_MULTIPLIERCELL_MULTIBLOCK0_FULLADDER0_N012310 VDD NOR21_H 
X_TEAMG_DESIGN_TEAMG_MULTIPLIERCELL_MULTIBLOCK0_FULLADDER0_AND1_U1        
+  TEAMG_DESIGN_TEAMG_MULTIPLIERCELL_MULTIBLOCK0_N00323
+  TEAMG_DESIGN_TEAMG_MULTIPLIERCELL_N02928 GND
+  TEAMG_DESIGN_TEAMG_MULTIPLIERCELL_MULTIBLOCK0_FULLADDER0_AND1_N000542 VDD
+  NAND21_H 
X_TEAMG_DESIGN_TEAMG_MULTIPLIERCELL_MULTIBLOCK0_FULLADDER0_AND1_U2        
+  TEAMG_DESIGN_TEAMG_MULTIPLIERCELL_MULTIBLOCK0_FULLADDER0_AND1_N000542 GND
+  TEAMG_DESIGN_TEAMG_MULTIPLIERCELL_MULTIBLOCK0_FULLADDER0_N00847 VDD INV1_H 
X_TEAMG_DESIGN_TEAMG_MULTIPLIERCELL_MULTIBLOCK0_AND2_U1        
+  TEAMG_DESIGN_TEAMG_MULTIPLIERCELL_N02727
+  TEAMG_DESIGN_TEAMG_MULTIPLIERCELL_N02843 GND
+  TEAMG_DESIGN_TEAMG_MULTIPLIERCELL_MULTIBLOCK0_AND2_N000542 VDD NAND21_H 
X_TEAMG_DESIGN_TEAMG_MULTIPLIERCELL_MULTIBLOCK0_AND2_U2        
+  TEAMG_DESIGN_TEAMG_MULTIPLIERCELL_MULTIBLOCK0_AND2_N000542 GND
+  TEAMG_DESIGN_TEAMG_MULTIPLIERCELL_MULTIBLOCK0_N00327 VDD INV1_H 
X_TEAMG_DESIGN_TEAMG_MULTIPLIERCELL_MULTIBLOCK1_AND3_U1        
+  TEAMG_DESIGN_TEAMG_MULTIPLIERCELL_N02715
+  TEAMG_DESIGN_TEAMG_MULTIPLIERCELL_N03941 GND
+  TEAMG_DESIGN_TEAMG_MULTIPLIERCELL_MULTIBLOCK1_AND3_N000542 VDD NAND21_H 
X_TEAMG_DESIGN_TEAMG_MULTIPLIERCELL_MULTIBLOCK1_AND3_U2        
+  TEAMG_DESIGN_TEAMG_MULTIPLIERCELL_MULTIBLOCK1_AND3_N000542 GND
+  TEAMG_DESIGN_TEAMG_MULTIPLIERCELL_MULTIBLOCK1_N00331 VDD INV1_H 
X_TEAMG_DESIGN_TEAMG_MULTIPLIERCELL_MULTIBLOCK1_FULLADDER1_U2        
+  TEAMG_DESIGN_TEAMG_MULTIPLIERCELL_MULTIBLOCK1_FULLADDER1_N012310 GND
+  TEAMG_DESIGN_TEAMG_MULTIPLIERCELL_MULTIBLOCK1_N00083 VDD INV1_H 
X_TEAMG_DESIGN_TEAMG_MULTIPLIERCELL_MULTIBLOCK1_FULLADDER1_U4        
+  TEAMG_DESIGN_TEAMG_MULTIPLIERCELL_MULTIBLOCK1_N00327
+  TEAMG_DESIGN_TEAMG_MULTIPLIERCELL_N03717 GND
+  TEAMG_DESIGN_TEAMG_MULTIPLIERCELL_MULTIBLOCK1_FULLADDER1_N00976 VDD XOR21_H 
X_TEAMG_DESIGN_TEAMG_MULTIPLIERCELL_MULTIBLOCK1_FULLADDER1_AND2_U1        
+  TEAMG_DESIGN_TEAMG_MULTIPLIERCELL_MULTIBLOCK1_FULLADDER1_N00976
+  TEAMG_DESIGN_TEAMG_MULTIPLIERCELL_MULTIBLOCK1_N00087 GND
+  TEAMG_DESIGN_TEAMG_MULTIPLIERCELL_MULTIBLOCK1_FULLADDER1_AND2_N000542 VDD
+  NAND21_H 
X_TEAMG_DESIGN_TEAMG_MULTIPLIERCELL_MULTIBLOCK1_FULLADDER1_AND2_U2        
+  TEAMG_DESIGN_TEAMG_MULTIPLIERCELL_MULTIBLOCK1_FULLADDER1_AND2_N000542 GND
+  TEAMG_DESIGN_TEAMG_MULTIPLIERCELL_MULTIBLOCK1_FULLADDER1_N00347 VDD INV1_H 
X_TEAMG_DESIGN_TEAMG_MULTIPLIERCELL_MULTIBLOCK1_FULLADDER1_U3        
+  TEAMG_DESIGN_TEAMG_MULTIPLIERCELL_MULTIBLOCK1_FULLADDER1_N00976
+  TEAMG_DESIGN_TEAMG_MULTIPLIERCELL_MULTIBLOCK1_N00087 GND
+  TEAMG_DESIGN_TEAMG_MULTIPLIERCELL_N03853 VDD XOR21_H 
X_TEAMG_DESIGN_TEAMG_MULTIPLIERCELL_MULTIBLOCK1_FULLADDER1_U1        
+  TEAMG_DESIGN_TEAMG_MULTIPLIERCELL_MULTIBLOCK1_FULLADDER1_N00847
+  TEAMG_DESIGN_TEAMG_MULTIPLIERCELL_MULTIBLOCK1_FULLADDER1_N00347 GND
+  TEAMG_DESIGN_TEAMG_MULTIPLIERCELL_MULTIBLOCK1_FULLADDER1_N012310 VDD NOR21_H 
X_TEAMG_DESIGN_TEAMG_MULTIPLIERCELL_MULTIBLOCK1_FULLADDER1_AND1_U1        
+  TEAMG_DESIGN_TEAMG_MULTIPLIERCELL_MULTIBLOCK1_N00327
+  TEAMG_DESIGN_TEAMG_MULTIPLIERCELL_N03717 GND
+  TEAMG_DESIGN_TEAMG_MULTIPLIERCELL_MULTIBLOCK1_FULLADDER1_AND1_N000542 VDD
+  NAND21_H 
X_TEAMG_DESIGN_TEAMG_MULTIPLIERCELL_MULTIBLOCK1_FULLADDER1_AND1_U2        
+  TEAMG_DESIGN_TEAMG_MULTIPLIERCELL_MULTIBLOCK1_FULLADDER1_AND1_N000542 GND
+  TEAMG_DESIGN_TEAMG_MULTIPLIERCELL_MULTIBLOCK1_FULLADDER1_N00847 VDD INV1_H 
X_TEAMG_DESIGN_TEAMG_MULTIPLIERCELL_MULTIBLOCK1_FULLADDER2_U2        
+  TEAMG_DESIGN_TEAMG_MULTIPLIERCELL_MULTIBLOCK1_FULLADDER2_N012310 GND
+  TEAMG_DESIGN_TEAMG_MULTIPLIERCELL_N03845 VDD INV1_H 
X_TEAMG_DESIGN_TEAMG_MULTIPLIERCELL_MULTIBLOCK1_FULLADDER2_U4        
+  TEAMG_DESIGN_TEAMG_MULTIPLIERCELL_MULTIBLOCK1_N00331
+  TEAMG_DESIGN_TEAMG_MULTIPLIERCELL_N03721 GND
+  TEAMG_DESIGN_TEAMG_MULTIPLIERCELL_MULTIBLOCK1_FULLADDER2_N00976 VDD XOR21_H 
X_TEAMG_DESIGN_TEAMG_MULTIPLIERCELL_MULTIBLOCK1_FULLADDER2_AND2_U1        
+  TEAMG_DESIGN_TEAMG_MULTIPLIERCELL_MULTIBLOCK1_FULLADDER2_N00976
+  TEAMG_DESIGN_TEAMG_MULTIPLIERCELL_MULTIBLOCK1_N00083 GND
+  TEAMG_DESIGN_TEAMG_MULTIPLIERCELL_MULTIBLOCK1_FULLADDER2_AND2_N000542 VDD
+  NAND21_H 
X_TEAMG_DESIGN_TEAMG_MULTIPLIERCELL_MULTIBLOCK1_FULLADDER2_AND2_U2        
+  TEAMG_DESIGN_TEAMG_MULTIPLIERCELL_MULTIBLOCK1_FULLADDER2_AND2_N000542 GND
+  TEAMG_DESIGN_TEAMG_MULTIPLIERCELL_MULTIBLOCK1_FULLADDER2_N00347 VDD INV1_H 
X_TEAMG_DESIGN_TEAMG_MULTIPLIERCELL_MULTIBLOCK1_FULLADDER2_U3        
+  TEAMG_DESIGN_TEAMG_MULTIPLIERCELL_MULTIBLOCK1_FULLADDER2_N00976
+  TEAMG_DESIGN_TEAMG_MULTIPLIERCELL_MULTIBLOCK1_N00083 GND
+  TEAMG_DESIGN_TEAMG_MULTIPLIERCELL_N03849 VDD XOR21_H 
X_TEAMG_DESIGN_TEAMG_MULTIPLIERCELL_MULTIBLOCK1_FULLADDER2_U1        
+  TEAMG_DESIGN_TEAMG_MULTIPLIERCELL_MULTIBLOCK1_FULLADDER2_N00847
+  TEAMG_DESIGN_TEAMG_MULTIPLIERCELL_MULTIBLOCK1_FULLADDER2_N00347 GND
+  TEAMG_DESIGN_TEAMG_MULTIPLIERCELL_MULTIBLOCK1_FULLADDER2_N012310 VDD NOR21_H 
X_TEAMG_DESIGN_TEAMG_MULTIPLIERCELL_MULTIBLOCK1_FULLADDER2_AND1_U1        
+  TEAMG_DESIGN_TEAMG_MULTIPLIERCELL_MULTIBLOCK1_N00331
+  TEAMG_DESIGN_TEAMG_MULTIPLIERCELL_N03721 GND
+  TEAMG_DESIGN_TEAMG_MULTIPLIERCELL_MULTIBLOCK1_FULLADDER2_AND1_N000542 VDD
+  NAND21_H 
X_TEAMG_DESIGN_TEAMG_MULTIPLIERCELL_MULTIBLOCK1_FULLADDER2_AND1_U2        
+  TEAMG_DESIGN_TEAMG_MULTIPLIERCELL_MULTIBLOCK1_FULLADDER2_AND1_N000542 GND
+  TEAMG_DESIGN_TEAMG_MULTIPLIERCELL_MULTIBLOCK1_FULLADDER2_N00847 VDD INV1_H 
X_TEAMG_DESIGN_TEAMG_MULTIPLIERCELL_MULTIBLOCK1_HALFADDER0_U4        
+  TEAMG_DESIGN_TEAMG_MULTIPLIERCELL_MULTIBLOCK1_N00319
+  TEAMG_DESIGN_TEAMG_MULTIPLIERCELL_N03709 GND
+  TEAMG_DESIGN_TEAMG_MULTIPLIERCELL_MULTIBLOCK1_HALFADDER0_N00228 VDD NAND21_H 
X_TEAMG_DESIGN_TEAMG_MULTIPLIERCELL_MULTIBLOCK1_HALFADDER0_U2        
+  TEAMG_DESIGN_TEAMG_MULTIPLIERCELL_MULTIBLOCK1_HALFADDER0_N00228 GND
+  TEAMG_DESIGN_TEAMG_MULTIPLIERCELL_MULTIBLOCK1_N00091 VDD INV1_H 
X_TEAMG_DESIGN_TEAMG_MULTIPLIERCELL_MULTIBLOCK1_HALFADDER0_U3        
+  TEAMG_DESIGN_TEAMG_MULTIPLIERCELL_MULTIBLOCK1_N00319
+  TEAMG_DESIGN_TEAMG_MULTIPLIERCELL_N03709 GND
+  TEAMG_DESIGN_TEAMG_MULTIPLIERCELL_N04059 VDD XOR21_H 
X_TEAMG_DESIGN_TEAMG_MULTIPLIERCELL_MULTIBLOCK1_AND0_U1        
+  TEAMG_DESIGN_TEAMG_MULTIPLIERCELL_N02751
+  TEAMG_DESIGN_TEAMG_MULTIPLIERCELL_N03941 GND
+  TEAMG_DESIGN_TEAMG_MULTIPLIERCELL_MULTIBLOCK1_AND0_N000542 VDD NAND21_H 
X_TEAMG_DESIGN_TEAMG_MULTIPLIERCELL_MULTIBLOCK1_AND0_U2        
+  TEAMG_DESIGN_TEAMG_MULTIPLIERCELL_MULTIBLOCK1_AND0_N000542 GND
+  TEAMG_DESIGN_TEAMG_MULTIPLIERCELL_MULTIBLOCK1_N00319 VDD INV1_H 
X_TEAMG_DESIGN_TEAMG_MULTIPLIERCELL_MULTIBLOCK1_AND1_U1        
+  TEAMG_DESIGN_TEAMG_MULTIPLIERCELL_N02739
+  TEAMG_DESIGN_TEAMG_MULTIPLIERCELL_N03941 GND
+  TEAMG_DESIGN_TEAMG_MULTIPLIERCELL_MULTIBLOCK1_AND1_N000542 VDD NAND21_H 
X_TEAMG_DESIGN_TEAMG_MULTIPLIERCELL_MULTIBLOCK1_AND1_U2        
+  TEAMG_DESIGN_TEAMG_MULTIPLIERCELL_MULTIBLOCK1_AND1_N000542 GND
+  TEAMG_DESIGN_TEAMG_MULTIPLIERCELL_MULTIBLOCK1_N00323 VDD INV1_H 
X_TEAMG_DESIGN_TEAMG_MULTIPLIERCELL_MULTIBLOCK1_FULLADDER0_U2        
+  TEAMG_DESIGN_TEAMG_MULTIPLIERCELL_MULTIBLOCK1_FULLADDER0_N012310 GND
+  TEAMG_DESIGN_TEAMG_MULTIPLIERCELL_MULTIBLOCK1_N00087 VDD INV1_H 
X_TEAMG_DESIGN_TEAMG_MULTIPLIERCELL_MULTIBLOCK1_FULLADDER0_U4        
+  TEAMG_DESIGN_TEAMG_MULTIPLIERCELL_MULTIBLOCK1_N00323
+  TEAMG_DESIGN_TEAMG_MULTIPLIERCELL_N03713 GND
+  TEAMG_DESIGN_TEAMG_MULTIPLIERCELL_MULTIBLOCK1_FULLADDER0_N00976 VDD XOR21_H 
X_TEAMG_DESIGN_TEAMG_MULTIPLIERCELL_MULTIBLOCK1_FULLADDER0_AND2_U1        
+  TEAMG_DESIGN_TEAMG_MULTIPLIERCELL_MULTIBLOCK1_FULLADDER0_N00976
+  TEAMG_DESIGN_TEAMG_MULTIPLIERCELL_MULTIBLOCK1_N00091 GND
+  TEAMG_DESIGN_TEAMG_MULTIPLIERCELL_MULTIBLOCK1_FULLADDER0_AND2_N000542 VDD
+  NAND21_H 
X_TEAMG_DESIGN_TEAMG_MULTIPLIERCELL_MULTIBLOCK1_FULLADDER0_AND2_U2        
+  TEAMG_DESIGN_TEAMG_MULTIPLIERCELL_MULTIBLOCK1_FULLADDER0_AND2_N000542 GND
+  TEAMG_DESIGN_TEAMG_MULTIPLIERCELL_MULTIBLOCK1_FULLADDER0_N00347 VDD INV1_H 
X_TEAMG_DESIGN_TEAMG_MULTIPLIERCELL_MULTIBLOCK1_FULLADDER0_U3        
+  TEAMG_DESIGN_TEAMG_MULTIPLIERCELL_MULTIBLOCK1_FULLADDER0_N00976
+  TEAMG_DESIGN_TEAMG_MULTIPLIERCELL_MULTIBLOCK1_N00091 GND
+  TEAMG_DESIGN_TEAMG_MULTIPLIERCELL_N03841 VDD XOR21_H 
X_TEAMG_DESIGN_TEAMG_MULTIPLIERCELL_MULTIBLOCK1_FULLADDER0_U1        
+  TEAMG_DESIGN_TEAMG_MULTIPLIERCELL_MULTIBLOCK1_FULLADDER0_N00847
+  TEAMG_DESIGN_TEAMG_MULTIPLIERCELL_MULTIBLOCK1_FULLADDER0_N00347 GND
+  TEAMG_DESIGN_TEAMG_MULTIPLIERCELL_MULTIBLOCK1_FULLADDER0_N012310 VDD NOR21_H 
X_TEAMG_DESIGN_TEAMG_MULTIPLIERCELL_MULTIBLOCK1_FULLADDER0_AND1_U1        
+  TEAMG_DESIGN_TEAMG_MULTIPLIERCELL_MULTIBLOCK1_N00323
+  TEAMG_DESIGN_TEAMG_MULTIPLIERCELL_N03713 GND
+  TEAMG_DESIGN_TEAMG_MULTIPLIERCELL_MULTIBLOCK1_FULLADDER0_AND1_N000542 VDD
+  NAND21_H 
X_TEAMG_DESIGN_TEAMG_MULTIPLIERCELL_MULTIBLOCK1_FULLADDER0_AND1_U2        
+  TEAMG_DESIGN_TEAMG_MULTIPLIERCELL_MULTIBLOCK1_FULLADDER0_AND1_N000542 GND
+  TEAMG_DESIGN_TEAMG_MULTIPLIERCELL_MULTIBLOCK1_FULLADDER0_N00847 VDD INV1_H 
X_TEAMG_DESIGN_TEAMG_MULTIPLIERCELL_MULTIBLOCK1_AND2_U1        
+  TEAMG_DESIGN_TEAMG_MULTIPLIERCELL_N02727
+  TEAMG_DESIGN_TEAMG_MULTIPLIERCELL_N03941 GND
+  TEAMG_DESIGN_TEAMG_MULTIPLIERCELL_MULTIBLOCK1_AND2_N000542 VDD NAND21_H 
X_TEAMG_DESIGN_TEAMG_MULTIPLIERCELL_MULTIBLOCK1_AND2_U2        
+  TEAMG_DESIGN_TEAMG_MULTIPLIERCELL_MULTIBLOCK1_AND2_N000542 GND
+  TEAMG_DESIGN_TEAMG_MULTIPLIERCELL_MULTIBLOCK1_N00327 VDD INV1_H 
X_TEAMG_DESIGN_TEAMG_MULTIPLIERCELL_U6        
+  TEAMG_DESIGN_TEAMG_MULTIPLIERCELL_FLIP_1
+  TEAMG_DESIGN_TEAMG_MULTIPLIERCELL_FLIP_2 GND
+  TEAMG_DESIGN_TEAMG_MULTIPLIERCELL_N04187 VDD XOR21_H 
X_TEAMG_DESIGN_TEAMG_MULTIPLIERCELL_MULTIBLOCK2_AND3_U1        
+  TEAMG_DESIGN_TEAMG_MULTIPLIERCELL_N02715
+  TEAMG_DESIGN_TEAMG_MULTIPLIERCELL_N03953 GND
+  TEAMG_DESIGN_TEAMG_MULTIPLIERCELL_MULTIBLOCK2_AND3_N000542 VDD NAND21_H 
X_TEAMG_DESIGN_TEAMG_MULTIPLIERCELL_MULTIBLOCK2_AND3_U2        
+  TEAMG_DESIGN_TEAMG_MULTIPLIERCELL_MULTIBLOCK2_AND3_N000542 GND
+  TEAMG_DESIGN_TEAMG_MULTIPLIERCELL_MULTIBLOCK2_N00331 VDD INV1_H 
X_TEAMG_DESIGN_TEAMG_MULTIPLIERCELL_MULTIBLOCK2_FULLADDER1_U2        
+  TEAMG_DESIGN_TEAMG_MULTIPLIERCELL_MULTIBLOCK2_FULLADDER1_N012310 GND
+  TEAMG_DESIGN_TEAMG_MULTIPLIERCELL_MULTIBLOCK2_N00083 VDD INV1_H 
X_TEAMG_DESIGN_TEAMG_MULTIPLIERCELL_MULTIBLOCK2_FULLADDER1_U4        
+  TEAMG_DESIGN_TEAMG_MULTIPLIERCELL_MULTIBLOCK2_N00327
+  TEAMG_DESIGN_TEAMG_MULTIPLIERCELL_N03849 GND
+  TEAMG_DESIGN_TEAMG_MULTIPLIERCELL_MULTIBLOCK2_FULLADDER1_N00976 VDD XOR21_H 
X_TEAMG_DESIGN_TEAMG_MULTIPLIERCELL_MULTIBLOCK2_FULLADDER1_AND2_U1        
+  TEAMG_DESIGN_TEAMG_MULTIPLIERCELL_MULTIBLOCK2_FULLADDER1_N00976
+  TEAMG_DESIGN_TEAMG_MULTIPLIERCELL_MULTIBLOCK2_N00087 GND
+  TEAMG_DESIGN_TEAMG_MULTIPLIERCELL_MULTIBLOCK2_FULLADDER1_AND2_N000542 VDD
+  NAND21_H 
X_TEAMG_DESIGN_TEAMG_MULTIPLIERCELL_MULTIBLOCK2_FULLADDER1_AND2_U2        
+  TEAMG_DESIGN_TEAMG_MULTIPLIERCELL_MULTIBLOCK2_FULLADDER1_AND2_N000542 GND
+  TEAMG_DESIGN_TEAMG_MULTIPLIERCELL_MULTIBLOCK2_FULLADDER1_N00347 VDD INV1_H 
X_TEAMG_DESIGN_TEAMG_MULTIPLIERCELL_MULTIBLOCK2_FULLADDER1_U3        
+  TEAMG_DESIGN_TEAMG_MULTIPLIERCELL_MULTIBLOCK2_FULLADDER1_N00976
+  TEAMG_DESIGN_TEAMG_MULTIPLIERCELL_MULTIBLOCK2_N00087 GND
+  TEAMG_DESIGN_TEAMG_MULTIPLIERCELL_N04071 VDD XOR21_H 
X_TEAMG_DESIGN_TEAMG_MULTIPLIERCELL_MULTIBLOCK2_FULLADDER1_U1        
+  TEAMG_DESIGN_TEAMG_MULTIPLIERCELL_MULTIBLOCK2_FULLADDER1_N00847
+  TEAMG_DESIGN_TEAMG_MULTIPLIERCELL_MULTIBLOCK2_FULLADDER1_N00347 GND
+  TEAMG_DESIGN_TEAMG_MULTIPLIERCELL_MULTIBLOCK2_FULLADDER1_N012310 VDD NOR21_H 
X_TEAMG_DESIGN_TEAMG_MULTIPLIERCELL_MULTIBLOCK2_FULLADDER1_AND1_U1        
+  TEAMG_DESIGN_TEAMG_MULTIPLIERCELL_MULTIBLOCK2_N00327
+  TEAMG_DESIGN_TEAMG_MULTIPLIERCELL_N03849 GND
+  TEAMG_DESIGN_TEAMG_MULTIPLIERCELL_MULTIBLOCK2_FULLADDER1_AND1_N000542 VDD
+  NAND21_H 
X_TEAMG_DESIGN_TEAMG_MULTIPLIERCELL_MULTIBLOCK2_FULLADDER1_AND1_U2        
+  TEAMG_DESIGN_TEAMG_MULTIPLIERCELL_MULTIBLOCK2_FULLADDER1_AND1_N000542 GND
+  TEAMG_DESIGN_TEAMG_MULTIPLIERCELL_MULTIBLOCK2_FULLADDER1_N00847 VDD INV1_H 
X_TEAMG_DESIGN_TEAMG_MULTIPLIERCELL_MULTIBLOCK2_FULLADDER2_U2        
+  TEAMG_DESIGN_TEAMG_MULTIPLIERCELL_MULTIBLOCK2_FULLADDER2_N012310 GND
+  TEAMG_DESIGN_TEAMG_MULTIPLIERCELL_N04079 VDD INV1_H 
X_TEAMG_DESIGN_TEAMG_MULTIPLIERCELL_MULTIBLOCK2_FULLADDER2_U4        
+  TEAMG_DESIGN_TEAMG_MULTIPLIERCELL_MULTIBLOCK2_N00331
+  TEAMG_DESIGN_TEAMG_MULTIPLIERCELL_N03845 GND
+  TEAMG_DESIGN_TEAMG_MULTIPLIERCELL_MULTIBLOCK2_FULLADDER2_N00976 VDD XOR21_H 
X_TEAMG_DESIGN_TEAMG_MULTIPLIERCELL_MULTIBLOCK2_FULLADDER2_AND2_U1        
+  TEAMG_DESIGN_TEAMG_MULTIPLIERCELL_MULTIBLOCK2_FULLADDER2_N00976
+  TEAMG_DESIGN_TEAMG_MULTIPLIERCELL_MULTIBLOCK2_N00083 GND
+  TEAMG_DESIGN_TEAMG_MULTIPLIERCELL_MULTIBLOCK2_FULLADDER2_AND2_N000542 VDD
+  NAND21_H 
X_TEAMG_DESIGN_TEAMG_MULTIPLIERCELL_MULTIBLOCK2_FULLADDER2_AND2_U2        
+  TEAMG_DESIGN_TEAMG_MULTIPLIERCELL_MULTIBLOCK2_FULLADDER2_AND2_N000542 GND
+  TEAMG_DESIGN_TEAMG_MULTIPLIERCELL_MULTIBLOCK2_FULLADDER2_N00347 VDD INV1_H 
X_TEAMG_DESIGN_TEAMG_MULTIPLIERCELL_MULTIBLOCK2_FULLADDER2_U3        
+  TEAMG_DESIGN_TEAMG_MULTIPLIERCELL_MULTIBLOCK2_FULLADDER2_N00976
+  TEAMG_DESIGN_TEAMG_MULTIPLIERCELL_MULTIBLOCK2_N00083 GND
+  TEAMG_DESIGN_TEAMG_MULTIPLIERCELL_N04075 VDD XOR21_H 
X_TEAMG_DESIGN_TEAMG_MULTIPLIERCELL_MULTIBLOCK2_FULLADDER2_U1        
+  TEAMG_DESIGN_TEAMG_MULTIPLIERCELL_MULTIBLOCK2_FULLADDER2_N00847
+  TEAMG_DESIGN_TEAMG_MULTIPLIERCELL_MULTIBLOCK2_FULLADDER2_N00347 GND
+  TEAMG_DESIGN_TEAMG_MULTIPLIERCELL_MULTIBLOCK2_FULLADDER2_N012310 VDD NOR21_H 
X_TEAMG_DESIGN_TEAMG_MULTIPLIERCELL_MULTIBLOCK2_FULLADDER2_AND1_U1        
+  TEAMG_DESIGN_TEAMG_MULTIPLIERCELL_MULTIBLOCK2_N00331
+  TEAMG_DESIGN_TEAMG_MULTIPLIERCELL_N03845 GND
+  TEAMG_DESIGN_TEAMG_MULTIPLIERCELL_MULTIBLOCK2_FULLADDER2_AND1_N000542 VDD
+  NAND21_H 
X_TEAMG_DESIGN_TEAMG_MULTIPLIERCELL_MULTIBLOCK2_FULLADDER2_AND1_U2        
+  TEAMG_DESIGN_TEAMG_MULTIPLIERCELL_MULTIBLOCK2_FULLADDER2_AND1_N000542 GND
+  TEAMG_DESIGN_TEAMG_MULTIPLIERCELL_MULTIBLOCK2_FULLADDER2_N00847 VDD INV1_H 
X_TEAMG_DESIGN_TEAMG_MULTIPLIERCELL_MULTIBLOCK2_HALFADDER0_U4        
+  TEAMG_DESIGN_TEAMG_MULTIPLIERCELL_MULTIBLOCK2_N00319
+  TEAMG_DESIGN_TEAMG_MULTIPLIERCELL_N03841 GND
+  TEAMG_DESIGN_TEAMG_MULTIPLIERCELL_MULTIBLOCK2_HALFADDER0_N00228 VDD NAND21_H 
X_TEAMG_DESIGN_TEAMG_MULTIPLIERCELL_MULTIBLOCK2_HALFADDER0_U2        
+  TEAMG_DESIGN_TEAMG_MULTIPLIERCELL_MULTIBLOCK2_HALFADDER0_N00228 GND
+  TEAMG_DESIGN_TEAMG_MULTIPLIERCELL_MULTIBLOCK2_N00091 VDD INV1_H 
X_TEAMG_DESIGN_TEAMG_MULTIPLIERCELL_MULTIBLOCK2_HALFADDER0_U3        
+  TEAMG_DESIGN_TEAMG_MULTIPLIERCELL_MULTIBLOCK2_N00319
+  TEAMG_DESIGN_TEAMG_MULTIPLIERCELL_N03841 GND
+  TEAMG_DESIGN_TEAMG_MULTIPLIERCELL_N04063 VDD XOR21_H 
X_TEAMG_DESIGN_TEAMG_MULTIPLIERCELL_MULTIBLOCK2_AND0_U1        
+  TEAMG_DESIGN_TEAMG_MULTIPLIERCELL_N02751
+  TEAMG_DESIGN_TEAMG_MULTIPLIERCELL_N03953 GND
+  TEAMG_DESIGN_TEAMG_MULTIPLIERCELL_MULTIBLOCK2_AND0_N000542 VDD NAND21_H 
X_TEAMG_DESIGN_TEAMG_MULTIPLIERCELL_MULTIBLOCK2_AND0_U2        
+  TEAMG_DESIGN_TEAMG_MULTIPLIERCELL_MULTIBLOCK2_AND0_N000542 GND
+  TEAMG_DESIGN_TEAMG_MULTIPLIERCELL_MULTIBLOCK2_N00319 VDD INV1_H 
X_TEAMG_DESIGN_TEAMG_MULTIPLIERCELL_MULTIBLOCK2_AND1_U1        
+  TEAMG_DESIGN_TEAMG_MULTIPLIERCELL_N02739
+  TEAMG_DESIGN_TEAMG_MULTIPLIERCELL_N03953 GND
+  TEAMG_DESIGN_TEAMG_MULTIPLIERCELL_MULTIBLOCK2_AND1_N000542 VDD NAND21_H 
X_TEAMG_DESIGN_TEAMG_MULTIPLIERCELL_MULTIBLOCK2_AND1_U2        
+  TEAMG_DESIGN_TEAMG_MULTIPLIERCELL_MULTIBLOCK2_AND1_N000542 GND
+  TEAMG_DESIGN_TEAMG_MULTIPLIERCELL_MULTIBLOCK2_N00323 VDD INV1_H 
X_TEAMG_DESIGN_TEAMG_MULTIPLIERCELL_MULTIBLOCK2_FULLADDER0_U2        
+  TEAMG_DESIGN_TEAMG_MULTIPLIERCELL_MULTIBLOCK2_FULLADDER0_N012310 GND
+  TEAMG_DESIGN_TEAMG_MULTIPLIERCELL_MULTIBLOCK2_N00087 VDD INV1_H 
X_TEAMG_DESIGN_TEAMG_MULTIPLIERCELL_MULTIBLOCK2_FULLADDER0_U4        
+  TEAMG_DESIGN_TEAMG_MULTIPLIERCELL_MULTIBLOCK2_N00323
+  TEAMG_DESIGN_TEAMG_MULTIPLIERCELL_N03853 GND
+  TEAMG_DESIGN_TEAMG_MULTIPLIERCELL_MULTIBLOCK2_FULLADDER0_N00976 VDD XOR21_H 
X_TEAMG_DESIGN_TEAMG_MULTIPLIERCELL_MULTIBLOCK2_FULLADDER0_AND2_U1        
+  TEAMG_DESIGN_TEAMG_MULTIPLIERCELL_MULTIBLOCK2_FULLADDER0_N00976
+  TEAMG_DESIGN_TEAMG_MULTIPLIERCELL_MULTIBLOCK2_N00091 GND
+  TEAMG_DESIGN_TEAMG_MULTIPLIERCELL_MULTIBLOCK2_FULLADDER0_AND2_N000542 VDD
+  NAND21_H 
X_TEAMG_DESIGN_TEAMG_MULTIPLIERCELL_MULTIBLOCK2_FULLADDER0_AND2_U2        
+  TEAMG_DESIGN_TEAMG_MULTIPLIERCELL_MULTIBLOCK2_FULLADDER0_AND2_N000542 GND
+  TEAMG_DESIGN_TEAMG_MULTIPLIERCELL_MULTIBLOCK2_FULLADDER0_N00347 VDD INV1_H 
X_TEAMG_DESIGN_TEAMG_MULTIPLIERCELL_MULTIBLOCK2_FULLADDER0_U3        
+  TEAMG_DESIGN_TEAMG_MULTIPLIERCELL_MULTIBLOCK2_FULLADDER0_N00976
+  TEAMG_DESIGN_TEAMG_MULTIPLIERCELL_MULTIBLOCK2_N00091 GND
+  TEAMG_DESIGN_TEAMG_MULTIPLIERCELL_N04067 VDD XOR21_H 
X_TEAMG_DESIGN_TEAMG_MULTIPLIERCELL_MULTIBLOCK2_FULLADDER0_U1        
+  TEAMG_DESIGN_TEAMG_MULTIPLIERCELL_MULTIBLOCK2_FULLADDER0_N00847
+  TEAMG_DESIGN_TEAMG_MULTIPLIERCELL_MULTIBLOCK2_FULLADDER0_N00347 GND
+  TEAMG_DESIGN_TEAMG_MULTIPLIERCELL_MULTIBLOCK2_FULLADDER0_N012310 VDD NOR21_H 
X_TEAMG_DESIGN_TEAMG_MULTIPLIERCELL_MULTIBLOCK2_FULLADDER0_AND1_U1        
+  TEAMG_DESIGN_TEAMG_MULTIPLIERCELL_MULTIBLOCK2_N00323
+  TEAMG_DESIGN_TEAMG_MULTIPLIERCELL_N03853 GND
+  TEAMG_DESIGN_TEAMG_MULTIPLIERCELL_MULTIBLOCK2_FULLADDER0_AND1_N000542 VDD
+  NAND21_H 
X_TEAMG_DESIGN_TEAMG_MULTIPLIERCELL_MULTIBLOCK2_FULLADDER0_AND1_U2        
+  TEAMG_DESIGN_TEAMG_MULTIPLIERCELL_MULTIBLOCK2_FULLADDER0_AND1_N000542 GND
+  TEAMG_DESIGN_TEAMG_MULTIPLIERCELL_MULTIBLOCK2_FULLADDER0_N00847 VDD INV1_H 
X_TEAMG_DESIGN_TEAMG_MULTIPLIERCELL_MULTIBLOCK2_AND2_U1        
+  TEAMG_DESIGN_TEAMG_MULTIPLIERCELL_N02727
+  TEAMG_DESIGN_TEAMG_MULTIPLIERCELL_N03953 GND
+  TEAMG_DESIGN_TEAMG_MULTIPLIERCELL_MULTIBLOCK2_AND2_N000542 VDD NAND21_H 
X_TEAMG_DESIGN_TEAMG_MULTIPLIERCELL_MULTIBLOCK2_AND2_U2        
+  TEAMG_DESIGN_TEAMG_MULTIPLIERCELL_MULTIBLOCK2_AND2_N000542 GND
+  TEAMG_DESIGN_TEAMG_MULTIPLIERCELL_MULTIBLOCK2_N00327 VDD INV1_H 
X_TEAMG_DESIGN_TEAMG_MULTIPLIERCELL_FLIPPERY_HALFADDER2_U4        
+  TEAMG_DESIGN_TEAMG_MULTIPLIERCELL_FLIPPERY_N00501
+  TEAMG_DESIGN_TEAMG_MULTIPLIERCELL_FLIPPERY_N00252 GND
+  TEAMG_DESIGN_TEAMG_MULTIPLIERCELL_FLIPPERY_HALFADDER2_N00228 VDD NAND21_H 
X_TEAMG_DESIGN_TEAMG_MULTIPLIERCELL_FLIPPERY_HALFADDER2_U2        
+  TEAMG_DESIGN_TEAMG_MULTIPLIERCELL_FLIPPERY_HALFADDER2_N00228 GND
+  TEAMG_DESIGN_TEAMG_MULTIPLIERCELL_FLIPPERY_N00256 VDD INV1_H 
X_TEAMG_DESIGN_TEAMG_MULTIPLIERCELL_FLIPPERY_HALFADDER2_U3        
+  TEAMG_DESIGN_TEAMG_MULTIPLIERCELL_FLIPPERY_N00501
+  TEAMG_DESIGN_TEAMG_MULTIPLIERCELL_FLIPPERY_N00252 GND
+  TEAMG_DESIGN_TEAMG_MULTIPLIERCELL_N02843 VDD XOR21_H 
X_TEAMG_DESIGN_TEAMG_MULTIPLIERCELL_FLIPPERY_U9        
+  TEAMG_DESIGN_TEAMG_MULTIPLIERCELL_FLIPPERY_N01437
+  TEAMG_DESIGN_TEAMG_MULTIPLIERCELL_FLIPPERY_N01449 GND
+  TEAMG_DESIGN_TEAMG_MULTIPLIERCELL_N03953 VDD XOR21_H 
X_TEAMG_DESIGN_TEAMG_MULTIPLIERCELL_FLIPPERY_U6         N01144 GND
+  TEAMG_DESIGN_TEAMG_MULTIPLIERCELL_FLIPPERY_N00927 VDD INV1_H 
X_TEAMG_DESIGN_TEAMG_MULTIPLIERCELL_FLIPPERY_U8         N01186 GND
+  TEAMG_DESIGN_TEAMG_MULTIPLIERCELL_FLIPPERY_N00935 VDD INV1_H 
X_TEAMG_DESIGN_TEAMG_MULTIPLIERCELL_FLIPPERY_U7         N01132 GND
+  TEAMG_DESIGN_TEAMG_MULTIPLIERCELL_FLIPPERY_N00931 VDD INV1_H 
X_TEAMG_DESIGN_TEAMG_MULTIPLIERCELL_FLIPPERY_U5         N01156 GND
+  TEAMG_DESIGN_TEAMG_MULTIPLIERCELL_FLIPPERY_N00923 VDD INV1_H 
X_TEAMG_DESIGN_TEAMG_MULTIPLIERCELL_FLIPPERY_HALFADDER3_U4        
+  TEAMG_DESIGN_TEAMG_MULTIPLIERCELL_FLIPPERY_N00505
+  TEAMG_DESIGN_TEAMG_MULTIPLIERCELL_FLIP_2 GND
+  TEAMG_DESIGN_TEAMG_MULTIPLIERCELL_FLIPPERY_HALFADDER3_N00228 VDD NAND21_H 
X_TEAMG_DESIGN_TEAMG_MULTIPLIERCELL_FLIPPERY_HALFADDER3_U2        
+  TEAMG_DESIGN_TEAMG_MULTIPLIERCELL_FLIPPERY_HALFADDER3_N00228 GND
+  TEAMG_DESIGN_TEAMG_MULTIPLIERCELL_FLIPPERY_N00252 VDD INV1_H 
X_TEAMG_DESIGN_TEAMG_MULTIPLIERCELL_FLIPPERY_HALFADDER3_U3        
+  TEAMG_DESIGN_TEAMG_MULTIPLIERCELL_FLIPPERY_N00505
+  TEAMG_DESIGN_TEAMG_MULTIPLIERCELL_FLIP_2 GND
+  TEAMG_DESIGN_TEAMG_MULTIPLIERCELL_N02862 VDD XOR21_H 
X_TEAMG_DESIGN_TEAMG_MULTIPLIERCELL_FLIPPERY_U1         N01156
+  TEAMG_DESIGN_TEAMG_MULTIPLIERCELL_FLIPPERY_N00923 GND
+  TEAMG_DESIGN_TEAMG_MULTIPLIERCELL_FLIPPERY_N01449
+  TEAMG_DESIGN_TEAMG_MULTIPLIERCELL_FLIP_2 VDD MUX21_H 
X_TEAMG_DESIGN_TEAMG_MULTIPLIERCELL_FLIPPERY_U4         N01186
+  TEAMG_DESIGN_TEAMG_MULTIPLIERCELL_FLIPPERY_N00935 GND
+  TEAMG_DESIGN_TEAMG_MULTIPLIERCELL_FLIPPERY_N00505
+  TEAMG_DESIGN_TEAMG_MULTIPLIERCELL_FLIP_2 VDD MUX21_H 
X_TEAMG_DESIGN_TEAMG_MULTIPLIERCELL_FLIPPERY_U3         N01132
+  TEAMG_DESIGN_TEAMG_MULTIPLIERCELL_FLIPPERY_N00931 GND
+  TEAMG_DESIGN_TEAMG_MULTIPLIERCELL_FLIPPERY_N00501
+  TEAMG_DESIGN_TEAMG_MULTIPLIERCELL_FLIP_2 VDD MUX21_H 
X_TEAMG_DESIGN_TEAMG_MULTIPLIERCELL_FLIPPERY_U2         N01144
+  TEAMG_DESIGN_TEAMG_MULTIPLIERCELL_FLIPPERY_N00927 GND
+  TEAMG_DESIGN_TEAMG_MULTIPLIERCELL_FLIPPERY_N00491
+  TEAMG_DESIGN_TEAMG_MULTIPLIERCELL_FLIP_2 VDD MUX21_H 
X_TEAMG_DESIGN_TEAMG_MULTIPLIERCELL_FLIPPERY_HALFADDER1_U4        
+  TEAMG_DESIGN_TEAMG_MULTIPLIERCELL_FLIPPERY_N00491
+  TEAMG_DESIGN_TEAMG_MULTIPLIERCELL_FLIPPERY_N00256 GND
+  TEAMG_DESIGN_TEAMG_MULTIPLIERCELL_FLIPPERY_HALFADDER1_N00228 VDD NAND21_H 
X_TEAMG_DESIGN_TEAMG_MULTIPLIERCELL_FLIPPERY_HALFADDER1_U2        
+  TEAMG_DESIGN_TEAMG_MULTIPLIERCELL_FLIPPERY_HALFADDER1_N00228 GND
+  TEAMG_DESIGN_TEAMG_MULTIPLIERCELL_FLIPPERY_N01437 VDD INV1_H 
X_TEAMG_DESIGN_TEAMG_MULTIPLIERCELL_FLIPPERY_HALFADDER1_U3        
+  TEAMG_DESIGN_TEAMG_MULTIPLIERCELL_FLIPPERY_N00491
+  TEAMG_DESIGN_TEAMG_MULTIPLIERCELL_FLIPPERY_N00256 GND
+  TEAMG_DESIGN_TEAMG_MULTIPLIERCELL_N03941 VDD XOR21_H 
X_TEAMG_DESIGN_TEAMG_MULTIPLIERCELL_FLIPPERX_HALFADDER2_U4        
+  TEAMG_DESIGN_TEAMG_MULTIPLIERCELL_FLIPPERX_N00501
+  TEAMG_DESIGN_TEAMG_MULTIPLIERCELL_FLIPPERX_N00252 GND
+  TEAMG_DESIGN_TEAMG_MULTIPLIERCELL_FLIPPERX_HALFADDER2_N00228 VDD NAND21_H 
X_TEAMG_DESIGN_TEAMG_MULTIPLIERCELL_FLIPPERX_HALFADDER2_U2        
+  TEAMG_DESIGN_TEAMG_MULTIPLIERCELL_FLIPPERX_HALFADDER2_N00228 GND
+  TEAMG_DESIGN_TEAMG_MULTIPLIERCELL_FLIPPERX_N00256 VDD INV1_H 
X_TEAMG_DESIGN_TEAMG_MULTIPLIERCELL_FLIPPERX_HALFADDER2_U3        
+  TEAMG_DESIGN_TEAMG_MULTIPLIERCELL_FLIPPERX_N00501
+  TEAMG_DESIGN_TEAMG_MULTIPLIERCELL_FLIPPERX_N00252 GND
+  TEAMG_DESIGN_TEAMG_MULTIPLIERCELL_N02739 VDD XOR21_H 
X_TEAMG_DESIGN_TEAMG_MULTIPLIERCELL_FLIPPERX_U9        
+  TEAMG_DESIGN_TEAMG_MULTIPLIERCELL_FLIPPERX_N01437
+  TEAMG_DESIGN_TEAMG_MULTIPLIERCELL_FLIPPERX_N01449 GND
+  TEAMG_DESIGN_TEAMG_MULTIPLIERCELL_N02715 VDD XOR21_H 
X_TEAMG_DESIGN_TEAMG_MULTIPLIERCELL_FLIPPERX_U6         N01286 GND
+  TEAMG_DESIGN_TEAMG_MULTIPLIERCELL_FLIPPERX_N00927 VDD INV1_H 
X_TEAMG_DESIGN_TEAMG_MULTIPLIERCELL_FLIPPERX_U8         N01274 GND
+  TEAMG_DESIGN_TEAMG_MULTIPLIERCELL_FLIPPERX_N00935 VDD INV1_H 
X_TEAMG_DESIGN_TEAMG_MULTIPLIERCELL_FLIPPERX_U7         N01282 GND
+  TEAMG_DESIGN_TEAMG_MULTIPLIERCELL_FLIPPERX_N00931 VDD INV1_H 
X_TEAMG_DESIGN_TEAMG_MULTIPLIERCELL_FLIPPERX_U5         N01290 GND
+  TEAMG_DESIGN_TEAMG_MULTIPLIERCELL_FLIPPERX_N00923 VDD INV1_H 
X_TEAMG_DESIGN_TEAMG_MULTIPLIERCELL_FLIPPERX_HALFADDER3_U4        
+  TEAMG_DESIGN_TEAMG_MULTIPLIERCELL_FLIPPERX_N00505
+  TEAMG_DESIGN_TEAMG_MULTIPLIERCELL_FLIP_1 GND
+  TEAMG_DESIGN_TEAMG_MULTIPLIERCELL_FLIPPERX_HALFADDER3_N00228 VDD NAND21_H 
X_TEAMG_DESIGN_TEAMG_MULTIPLIERCELL_FLIPPERX_HALFADDER3_U2        
+  TEAMG_DESIGN_TEAMG_MULTIPLIERCELL_FLIPPERX_HALFADDER3_N00228 GND
+  TEAMG_DESIGN_TEAMG_MULTIPLIERCELL_FLIPPERX_N00252 VDD INV1_H 
X_TEAMG_DESIGN_TEAMG_MULTIPLIERCELL_FLIPPERX_HALFADDER3_U3        
+  TEAMG_DESIGN_TEAMG_MULTIPLIERCELL_FLIPPERX_N00505
+  TEAMG_DESIGN_TEAMG_MULTIPLIERCELL_FLIP_1 GND
+  TEAMG_DESIGN_TEAMG_MULTIPLIERCELL_N02751 VDD XOR21_H 
X_TEAMG_DESIGN_TEAMG_MULTIPLIERCELL_FLIPPERX_U1         N01290
+  TEAMG_DESIGN_TEAMG_MULTIPLIERCELL_FLIPPERX_N00923 GND
+  TEAMG_DESIGN_TEAMG_MULTIPLIERCELL_FLIPPERX_N01449
+  TEAMG_DESIGN_TEAMG_MULTIPLIERCELL_FLIP_1 VDD MUX21_H 
X_TEAMG_DESIGN_TEAMG_MULTIPLIERCELL_FLIPPERX_U4         N01274
+  TEAMG_DESIGN_TEAMG_MULTIPLIERCELL_FLIPPERX_N00935 GND
+  TEAMG_DESIGN_TEAMG_MULTIPLIERCELL_FLIPPERX_N00505
+  TEAMG_DESIGN_TEAMG_MULTIPLIERCELL_FLIP_1 VDD MUX21_H 
X_TEAMG_DESIGN_TEAMG_MULTIPLIERCELL_FLIPPERX_U3         N01282
+  TEAMG_DESIGN_TEAMG_MULTIPLIERCELL_FLIPPERX_N00931 GND
+  TEAMG_DESIGN_TEAMG_MULTIPLIERCELL_FLIPPERX_N00501
+  TEAMG_DESIGN_TEAMG_MULTIPLIERCELL_FLIP_1 VDD MUX21_H 
X_TEAMG_DESIGN_TEAMG_MULTIPLIERCELL_FLIPPERX_U2         N01286
+  TEAMG_DESIGN_TEAMG_MULTIPLIERCELL_FLIPPERX_N00927 GND
+  TEAMG_DESIGN_TEAMG_MULTIPLIERCELL_FLIPPERX_N00491
+  TEAMG_DESIGN_TEAMG_MULTIPLIERCELL_FLIP_1 VDD MUX21_H 
X_TEAMG_DESIGN_TEAMG_MULTIPLIERCELL_FLIPPERX_HALFADDER1_U4        
+  TEAMG_DESIGN_TEAMG_MULTIPLIERCELL_FLIPPERX_N00491
+  TEAMG_DESIGN_TEAMG_MULTIPLIERCELL_FLIPPERX_N00256 GND
+  TEAMG_DESIGN_TEAMG_MULTIPLIERCELL_FLIPPERX_HALFADDER1_N00228 VDD NAND21_H 
X_TEAMG_DESIGN_TEAMG_MULTIPLIERCELL_FLIPPERX_HALFADDER1_U2        
+  TEAMG_DESIGN_TEAMG_MULTIPLIERCELL_FLIPPERX_HALFADDER1_N00228 GND
+  TEAMG_DESIGN_TEAMG_MULTIPLIERCELL_FLIPPERX_N01437 VDD INV1_H 
X_TEAMG_DESIGN_TEAMG_MULTIPLIERCELL_FLIPPERX_HALFADDER1_U3        
+  TEAMG_DESIGN_TEAMG_MULTIPLIERCELL_FLIPPERX_N00491
+  TEAMG_DESIGN_TEAMG_MULTIPLIERCELL_FLIPPERX_N00256 GND
+  TEAMG_DESIGN_TEAMG_MULTIPLIERCELL_N02727 VDD XOR21_H 
X_TEAMG_DESIGN_TEAMG_MULTIPLIERCELL_U5        
+  TEAMG_DESIGN_TEAMG_MULTIPLIERCELL_N054482 GND
+  TEAMG_DESIGN_TEAMG_MULTIPLIERCELL_FLIP_1 VDD INV1_H 
X_TEAMG_DESIGN_TEAMG_MULTIPLIERCELL_AND1_U1        
+  TEAMG_DESIGN_TEAMG_MULTIPLIERCELL_N02727
+  TEAMG_DESIGN_TEAMG_MULTIPLIERCELL_N02862 GND
+  TEAMG_DESIGN_TEAMG_MULTIPLIERCELL_AND1_N000542 VDD NAND21_H 
X_TEAMG_DESIGN_TEAMG_MULTIPLIERCELL_AND1_U2        
+  TEAMG_DESIGN_TEAMG_MULTIPLIERCELL_AND1_N000542 GND
+  TEAMG_DESIGN_TEAMG_MULTIPLIERCELL_N02928 VDD INV1_H 
X_TEAMG_DESIGN_TEAMG_MULTIPLIERCELL_U2         N01156 N01294 GND
+  TEAMG_DESIGN_TEAMG_MULTIPLIERCELL_N06944 VDD NAND21_H 
X_TEAMG_DESIGN_TEAMG_MULTIPLIERCELL_U7         GND
+  TEAMG_DESIGN_TEAMG_MULTIPLIERCELL_N02920 VDD TIE0_H 
X_TEAMG_DESIGN_TEAMG_MULTIPLIERCELL_U4         N01290 N01294 GND
+  TEAMG_DESIGN_TEAMG_MULTIPLIERCELL_N054482 VDD NAND21_H 
X_TEAMG_DESIGN_TEAMG_MULTIPLIERCELL_U3        
+  TEAMG_DESIGN_TEAMG_MULTIPLIERCELL_N06944 GND
+  TEAMG_DESIGN_TEAMG_MULTIPLIERCELL_FLIP_2 VDD INV1_H 
X_TEAMG_DESIGN_TEAMG_MULTIPLIERCELL_FLIPPER8BIT_U17        
+  TEAMG_DESIGN_TEAMG_MULTIPLIERCELL_FLIPPER8BIT_N03135
+  TEAMG_DESIGN_TEAMG_MULTIPLIERCELL_FLIPPER8BIT_N03125 GND MULTI_O_7 VDD XOR21_H
+  
X_TEAMG_DESIGN_TEAMG_MULTIPLIERCELL_FLIPPER8BIT_U12        
+  TEAMG_DESIGN_TEAMG_MULTIPLIERCELL_N04071
+  TEAMG_DESIGN_TEAMG_MULTIPLIERCELL_FLIPPER8BIT_N02642 GND
+  TEAMG_DESIGN_TEAMG_MULTIPLIERCELL_FLIPPER8BIT_N02592
+  TEAMG_DESIGN_TEAMG_MULTIPLIERCELL_N04187 VDD MUX21_H 
X_TEAMG_DESIGN_TEAMG_MULTIPLIERCELL_FLIPPER8BIT_U6        
+  TEAMG_DESIGN_TEAMG_MULTIPLIERCELL_N04059 GND
+  TEAMG_DESIGN_TEAMG_MULTIPLIERCELL_FLIPPER8BIT_N00927 VDD INV1_H 
X_TEAMG_DESIGN_TEAMG_MULTIPLIERCELL_FLIPPER8BIT_U15        
+  TEAMG_DESIGN_TEAMG_MULTIPLIERCELL_N04079 GND
+  TEAMG_DESIGN_TEAMG_MULTIPLIERCELL_FLIPPER8BIT_N02620 VDD INV1_H 
X_TEAMG_DESIGN_TEAMG_MULTIPLIERCELL_FLIPPER8BIT_U5        
+  TEAMG_DESIGN_TEAMG_MULTIPLIERCELL_N04063 GND
+  TEAMG_DESIGN_TEAMG_MULTIPLIERCELL_FLIPPER8BIT_N00923 VDD INV1_H 
X_TEAMG_DESIGN_TEAMG_MULTIPLIERCELL_FLIPPER8BIT_HALFADDER5_U4        
+  TEAMG_DESIGN_TEAMG_MULTIPLIERCELL_FLIPPER8BIT_N02586
+  TEAMG_DESIGN_TEAMG_MULTIPLIERCELL_FLIPPER8BIT_N03082 GND
+  TEAMG_DESIGN_TEAMG_MULTIPLIERCELL_FLIPPER8BIT_HALFADDER5_N00228 VDD NAND21_H 
X_TEAMG_DESIGN_TEAMG_MULTIPLIERCELL_FLIPPER8BIT_HALFADDER5_U2        
+  TEAMG_DESIGN_TEAMG_MULTIPLIERCELL_FLIPPER8BIT_HALFADDER5_N00228 GND
+  TEAMG_DESIGN_TEAMG_MULTIPLIERCELL_FLIPPER8BIT_N03086 VDD INV1_H 
X_TEAMG_DESIGN_TEAMG_MULTIPLIERCELL_FLIPPER8BIT_HALFADDER5_U3        
+  TEAMG_DESIGN_TEAMG_MULTIPLIERCELL_FLIPPER8BIT_N02586
+  TEAMG_DESIGN_TEAMG_MULTIPLIERCELL_FLIPPER8BIT_N03082 GND MULTI_O_4 VDD XOR21_H
+  
X_TEAMG_DESIGN_TEAMG_MULTIPLIERCELL_FLIPPER8BIT_HALFADDER2_U4        
+  TEAMG_DESIGN_TEAMG_MULTIPLIERCELL_FLIPPER8BIT_N00501
+  TEAMG_DESIGN_TEAMG_MULTIPLIERCELL_FLIPPER8BIT_N00252 GND
+  TEAMG_DESIGN_TEAMG_MULTIPLIERCELL_FLIPPER8BIT_HALFADDER2_N00228 VDD NAND21_H 
X_TEAMG_DESIGN_TEAMG_MULTIPLIERCELL_FLIPPER8BIT_HALFADDER2_U2        
+  TEAMG_DESIGN_TEAMG_MULTIPLIERCELL_FLIPPER8BIT_HALFADDER2_N00228 GND
+  TEAMG_DESIGN_TEAMG_MULTIPLIERCELL_FLIPPER8BIT_N00256 VDD INV1_H 
X_TEAMG_DESIGN_TEAMG_MULTIPLIERCELL_FLIPPER8BIT_HALFADDER2_U3        
+  TEAMG_DESIGN_TEAMG_MULTIPLIERCELL_FLIPPER8BIT_N00501
+  TEAMG_DESIGN_TEAMG_MULTIPLIERCELL_FLIPPER8BIT_N00252 GND MULTI_O_1 VDD XOR21_H
+  
X_TEAMG_DESIGN_TEAMG_MULTIPLIERCELL_FLIPPER8BIT_HALFADDER6_U4        
+  TEAMG_DESIGN_TEAMG_MULTIPLIERCELL_FLIPPER8BIT_N02592
+  TEAMG_DESIGN_TEAMG_MULTIPLIERCELL_FLIPPER8BIT_N03086 GND
+  TEAMG_DESIGN_TEAMG_MULTIPLIERCELL_FLIPPER8BIT_HALFADDER6_N00228 VDD NAND21_H 
X_TEAMG_DESIGN_TEAMG_MULTIPLIERCELL_FLIPPER8BIT_HALFADDER6_U2        
+  TEAMG_DESIGN_TEAMG_MULTIPLIERCELL_FLIPPER8BIT_HALFADDER6_N00228 GND
+  TEAMG_DESIGN_TEAMG_MULTIPLIERCELL_FLIPPER8BIT_N03090 VDD INV1_H 
X_TEAMG_DESIGN_TEAMG_MULTIPLIERCELL_FLIPPER8BIT_HALFADDER6_U3        
+  TEAMG_DESIGN_TEAMG_MULTIPLIERCELL_FLIPPER8BIT_N02592
+  TEAMG_DESIGN_TEAMG_MULTIPLIERCELL_FLIPPER8BIT_N03086 GND MULTI_O_5 VDD XOR21_H
+  
X_TEAMG_DESIGN_TEAMG_MULTIPLIERCELL_FLIPPER8BIT_U14        
+  TEAMG_DESIGN_TEAMG_MULTIPLIERCELL_N04079
+  TEAMG_DESIGN_TEAMG_MULTIPLIERCELL_FLIPPER8BIT_N02620 GND
+  TEAMG_DESIGN_TEAMG_MULTIPLIERCELL_FLIPPER8BIT_N03125
+  TEAMG_DESIGN_TEAMG_MULTIPLIERCELL_N04187 VDD MUX21_H 
X_TEAMG_DESIGN_TEAMG_MULTIPLIERCELL_FLIPPER8BIT_HALFADDER7_U4        
+  TEAMG_DESIGN_TEAMG_MULTIPLIERCELL_FLIPPER8BIT_N02580
+  TEAMG_DESIGN_TEAMG_MULTIPLIERCELL_FLIPPER8BIT_N03090 GND
+  TEAMG_DESIGN_TEAMG_MULTIPLIERCELL_FLIPPER8BIT_HALFADDER7_N00228 VDD NAND21_H 
X_TEAMG_DESIGN_TEAMG_MULTIPLIERCELL_FLIPPER8BIT_HALFADDER7_U2        
+  TEAMG_DESIGN_TEAMG_MULTIPLIERCELL_FLIPPER8BIT_HALFADDER7_N00228 GND
+  TEAMG_DESIGN_TEAMG_MULTIPLIERCELL_FLIPPER8BIT_N03135 VDD INV1_H 
X_TEAMG_DESIGN_TEAMG_MULTIPLIERCELL_FLIPPER8BIT_HALFADDER7_U3        
+  TEAMG_DESIGN_TEAMG_MULTIPLIERCELL_FLIPPER8BIT_N02580
+  TEAMG_DESIGN_TEAMG_MULTIPLIERCELL_FLIPPER8BIT_N03090 GND MULTI_O_6 VDD XOR21_H
+  
X_TEAMG_DESIGN_TEAMG_MULTIPLIERCELL_FLIPPER8BIT_U13        
+  TEAMG_DESIGN_TEAMG_MULTIPLIERCELL_N04075
+  TEAMG_DESIGN_TEAMG_MULTIPLIERCELL_FLIPPER8BIT_N02614 GND
+  TEAMG_DESIGN_TEAMG_MULTIPLIERCELL_FLIPPER8BIT_N02580
+  TEAMG_DESIGN_TEAMG_MULTIPLIERCELL_N04187 VDD MUX21_H 
X_TEAMG_DESIGN_TEAMG_MULTIPLIERCELL_FLIPPER8BIT_HALFADDER4_U4        
+  TEAMG_DESIGN_TEAMG_MULTIPLIERCELL_FLIPPER8BIT_N02339
+  TEAMG_DESIGN_TEAMG_MULTIPLIERCELL_FLIPPER8BIT_N02343 GND
+  TEAMG_DESIGN_TEAMG_MULTIPLIERCELL_FLIPPER8BIT_HALFADDER4_N00228 VDD NAND21_H 
X_TEAMG_DESIGN_TEAMG_MULTIPLIERCELL_FLIPPER8BIT_HALFADDER4_U2        
+  TEAMG_DESIGN_TEAMG_MULTIPLIERCELL_FLIPPER8BIT_HALFADDER4_N00228 GND
+  TEAMG_DESIGN_TEAMG_MULTIPLIERCELL_FLIPPER8BIT_N03082 VDD INV1_H 
X_TEAMG_DESIGN_TEAMG_MULTIPLIERCELL_FLIPPER8BIT_HALFADDER4_U3        
+  TEAMG_DESIGN_TEAMG_MULTIPLIERCELL_FLIPPER8BIT_N02339
+  TEAMG_DESIGN_TEAMG_MULTIPLIERCELL_FLIPPER8BIT_N02343 GND MULTI_O_3 VDD XOR21_H
+  
X_TEAMG_DESIGN_TEAMG_MULTIPLIERCELL_FLIPPER8BIT_HALFADDER1_U4        
+  TEAMG_DESIGN_TEAMG_MULTIPLIERCELL_FLIPPER8BIT_N00491
+  TEAMG_DESIGN_TEAMG_MULTIPLIERCELL_FLIPPER8BIT_N00256 GND
+  TEAMG_DESIGN_TEAMG_MULTIPLIERCELL_FLIPPER8BIT_HALFADDER1_N00228 VDD NAND21_H 
X_TEAMG_DESIGN_TEAMG_MULTIPLIERCELL_FLIPPER8BIT_HALFADDER1_U2        
+  TEAMG_DESIGN_TEAMG_MULTIPLIERCELL_FLIPPER8BIT_HALFADDER1_N00228 GND
+  TEAMG_DESIGN_TEAMG_MULTIPLIERCELL_FLIPPER8BIT_N02343 VDD INV1_H 
X_TEAMG_DESIGN_TEAMG_MULTIPLIERCELL_FLIPPER8BIT_HALFADDER1_U3        
+  TEAMG_DESIGN_TEAMG_MULTIPLIERCELL_FLIPPER8BIT_N00491
+  TEAMG_DESIGN_TEAMG_MULTIPLIERCELL_FLIPPER8BIT_N00256 GND MULTI_O_2 VDD XOR21_H
+  
X_TEAMG_DESIGN_TEAMG_MULTIPLIERCELL_FLIPPER8BIT_U11        
+  TEAMG_DESIGN_TEAMG_MULTIPLIERCELL_N04067
+  TEAMG_DESIGN_TEAMG_MULTIPLIERCELL_FLIPPER8BIT_N02636 GND
+  TEAMG_DESIGN_TEAMG_MULTIPLIERCELL_FLIPPER8BIT_N02586
+  TEAMG_DESIGN_TEAMG_MULTIPLIERCELL_N04187 VDD MUX21_H 
X_TEAMG_DESIGN_TEAMG_MULTIPLIERCELL_FLIPPER8BIT_U7        
+  TEAMG_DESIGN_TEAMG_MULTIPLIERCELL_N04055 GND
+  TEAMG_DESIGN_TEAMG_MULTIPLIERCELL_FLIPPER8BIT_N00931 VDD INV1_H 
X_TEAMG_DESIGN_TEAMG_MULTIPLIERCELL_FLIPPER8BIT_U16        
+  TEAMG_DESIGN_TEAMG_MULTIPLIERCELL_N04067 GND
+  TEAMG_DESIGN_TEAMG_MULTIPLIERCELL_FLIPPER8BIT_N02636 VDD INV1_H 
X_TEAMG_DESIGN_TEAMG_MULTIPLIERCELL_FLIPPER8BIT_U10        
+  TEAMG_DESIGN_TEAMG_MULTIPLIERCELL_N04075 GND
+  TEAMG_DESIGN_TEAMG_MULTIPLIERCELL_FLIPPER8BIT_N02614 VDD INV1_H 
X_TEAMG_DESIGN_TEAMG_MULTIPLIERCELL_FLIPPER8BIT_U1        
+  TEAMG_DESIGN_TEAMG_MULTIPLIERCELL_N04063
+  TEAMG_DESIGN_TEAMG_MULTIPLIERCELL_FLIPPER8BIT_N00923 GND
+  TEAMG_DESIGN_TEAMG_MULTIPLIERCELL_FLIPPER8BIT_N02339
+  TEAMG_DESIGN_TEAMG_MULTIPLIERCELL_N04187 VDD MUX21_H 
X_TEAMG_DESIGN_TEAMG_MULTIPLIERCELL_FLIPPER8BIT_U9        
+  TEAMG_DESIGN_TEAMG_MULTIPLIERCELL_N04071 GND
+  TEAMG_DESIGN_TEAMG_MULTIPLIERCELL_FLIPPER8BIT_N02642 VDD INV1_H 
X_TEAMG_DESIGN_TEAMG_MULTIPLIERCELL_FLIPPER8BIT_U2        
+  TEAMG_DESIGN_TEAMG_MULTIPLIERCELL_N04059
+  TEAMG_DESIGN_TEAMG_MULTIPLIERCELL_FLIPPER8BIT_N00927 GND
+  TEAMG_DESIGN_TEAMG_MULTIPLIERCELL_FLIPPER8BIT_N00491
+  TEAMG_DESIGN_TEAMG_MULTIPLIERCELL_N04187 VDD MUX21_H 
X_TEAMG_DESIGN_TEAMG_MULTIPLIERCELL_FLIPPER8BIT_HALFADDER3_U4        
+  TEAMG_DESIGN_TEAMG_MULTIPLIERCELL_FLIPPER8BIT_N00505
+  TEAMG_DESIGN_TEAMG_MULTIPLIERCELL_N04187 GND
+  TEAMG_DESIGN_TEAMG_MULTIPLIERCELL_FLIPPER8BIT_HALFADDER3_N00228 VDD NAND21_H 
X_TEAMG_DESIGN_TEAMG_MULTIPLIERCELL_FLIPPER8BIT_HALFADDER3_U2        
+  TEAMG_DESIGN_TEAMG_MULTIPLIERCELL_FLIPPER8BIT_HALFADDER3_N00228 GND
+  TEAMG_DESIGN_TEAMG_MULTIPLIERCELL_FLIPPER8BIT_N00252 VDD INV1_H 
X_TEAMG_DESIGN_TEAMG_MULTIPLIERCELL_FLIPPER8BIT_HALFADDER3_U3        
+  TEAMG_DESIGN_TEAMG_MULTIPLIERCELL_FLIPPER8BIT_N00505
+  TEAMG_DESIGN_TEAMG_MULTIPLIERCELL_N04187 GND MULTI_O_0 VDD XOR21_H 
X_TEAMG_DESIGN_TEAMG_MULTIPLIERCELL_FLIPPER8BIT_U3        
+  TEAMG_DESIGN_TEAMG_MULTIPLIERCELL_N04055
+  TEAMG_DESIGN_TEAMG_MULTIPLIERCELL_FLIPPER8BIT_N00931 GND
+  TEAMG_DESIGN_TEAMG_MULTIPLIERCELL_FLIPPER8BIT_N00501
+  TEAMG_DESIGN_TEAMG_MULTIPLIERCELL_N04187 VDD MUX21_H 
X_TEAMG_DESIGN_TEAMG_MULTIPLIERCELL_FLIPPER8BIT_U8        
+  TEAMG_DESIGN_TEAMG_MULTIPLIERCELL_N04051 GND
+  TEAMG_DESIGN_TEAMG_MULTIPLIERCELL_FLIPPER8BIT_N00935 VDD INV1_H 
X_TEAMG_DESIGN_TEAMG_MULTIPLIERCELL_FLIPPER8BIT_U4        
+  TEAMG_DESIGN_TEAMG_MULTIPLIERCELL_N04051
+  TEAMG_DESIGN_TEAMG_MULTIPLIERCELL_FLIPPER8BIT_N00935 GND
+  TEAMG_DESIGN_TEAMG_MULTIPLIERCELL_FLIPPER8BIT_N00505
+  TEAMG_DESIGN_TEAMG_MULTIPLIERCELL_N04187 VDD MUX21_H 
X_TEAMG_DESIGN_U1         N00641 GND INV_O VDD INV1_H 
X_TEAMG_DESIGN_TEAMG_SEQUENCE_RECOGNISER_U27         N01641
+  TEAMG_DESIGN_TEAMG_SEQUENCE_RECOGNISER_D0 GND
+  TEAMG_DESIGN_TEAMG_SEQUENCE_RECOGNISER_Q0
+  TEAMG_DESIGN_TEAMG_SEQUENCE_RECOGNISER_-Q0 N01667 VDD DFC1_H 
X_TEAMG_DESIGN_TEAMG_SEQUENCE_RECOGNISER_Q2_LOGIC_U30        
+  TEAMG_DESIGN_TEAMG_SEQUENCE_RECOGNISER_Q2_LOGIC_N08635 GND
+  TEAMG_DESIGN_TEAMG_SEQUENCE_RECOGNISER_D2 VDD INV1_H 
X_TEAMG_DESIGN_TEAMG_SEQUENCE_RECOGNISER_Q2_LOGIC_U20        
+  TEAMG_DESIGN_TEAMG_SEQUENCE_RECOGNISER_Q2_LOGIC_N07852
+  TEAMG_DESIGN_TEAMG_SEQUENCE_RECOGNISER_Q2_LOGIC_N04619
+  TEAMG_DESIGN_TEAMG_SEQUENCE_RECOGNISER_Q2_LOGIC_N04633
+  TEAMG_DESIGN_TEAMG_SEQUENCE_RECOGNISER_Q2_LOGIC_N04641 GND
+  TEAMG_DESIGN_TEAMG_SEQUENCE_RECOGNISER_Q2_LOGIC_N04667 VDD NAND41_H 
X_TEAMG_DESIGN_TEAMG_SEQUENCE_RECOGNISER_Q2_LOGIC_U15        
+  TEAMG_DESIGN_TEAMG_SEQUENCE_RECOGNISER_N04888
+  TEAMG_DESIGN_TEAMG_SEQUENCE_RECOGNISER_Q2_LOGIC_N04316 GND
+  TEAMG_DESIGN_TEAMG_SEQUENCE_RECOGNISER_Q2_LOGIC_N04278 VDD NOR21_H 
X_TEAMG_DESIGN_TEAMG_SEQUENCE_RECOGNISER_Q2_LOGIC_U29        
+  TEAMG_DESIGN_TEAMG_SEQUENCE_RECOGNISER_Q2_LOGIC_N04278
+  TEAMG_DESIGN_TEAMG_SEQUENCE_RECOGNISER_Q2_LOGIC_N04667 GND
+  TEAMG_DESIGN_TEAMG_SEQUENCE_RECOGNISER_Q2_LOGIC_N08635 VDD NOR21_H 
X_TEAMG_DESIGN_TEAMG_SEQUENCE_RECOGNISER_Q2_LOGIC_U25         N01663
+  TEAMG_DESIGN_TEAMG_SEQUENCE_RECOGNISER_Q2
+  TEAMG_DESIGN_TEAMG_SEQUENCE_RECOGNISER_Q1
+  TEAMG_DESIGN_TEAMG_SEQUENCE_RECOGNISER_-Q0 GND
+  TEAMG_DESIGN_TEAMG_SEQUENCE_RECOGNISER_Q2_LOGIC_N07852 VDD NAND41_H 
X_TEAMG_DESIGN_TEAMG_SEQUENCE_RECOGNISER_Q2_LOGIC_U28        
+  TEAMG_DESIGN_TEAMG_SEQUENCE_RECOGNISER_-Q2
+  TEAMG_DESIGN_TEAMG_SEQUENCE_RECOGNISER_Q1
+  TEAMG_DESIGN_TEAMG_SEQUENCE_RECOGNISER_Q0 N01663 GND
+  TEAMG_DESIGN_TEAMG_SEQUENCE_RECOGNISER_Q2_LOGIC_N04641 VDD NAND41_H 
X_TEAMG_DESIGN_TEAMG_SEQUENCE_RECOGNISER_Q2_LOGIC_U26        
+  TEAMG_DESIGN_TEAMG_SEQUENCE_RECOGNISER_Q2
+  TEAMG_DESIGN_TEAMG_SEQUENCE_RECOGNISER_Q0
+  TEAMG_DESIGN_TEAMG_SEQUENCE_RECOGNISER_-Q1 N01663 GND
+  TEAMG_DESIGN_TEAMG_SEQUENCE_RECOGNISER_Q2_LOGIC_N04619 VDD NAND41_H 
X_TEAMG_DESIGN_TEAMG_SEQUENCE_RECOGNISER_Q2_LOGIC_U14        
+  TEAMG_DESIGN_TEAMG_SEQUENCE_RECOGNISER_-Q2
+  TEAMG_DESIGN_TEAMG_SEQUENCE_RECOGNISER_-Q1 SEQ_O_MA
+  TEAMG_DESIGN_TEAMG_SEQUENCE_RECOGNISER_-Q0 GND
+  TEAMG_DESIGN_TEAMG_SEQUENCE_RECOGNISER_Q2_LOGIC_N04316 VDD NAND41_H 
X_TEAMG_DESIGN_TEAMG_SEQUENCE_RECOGNISER_Q2_LOGIC_U27        
+  TEAMG_DESIGN_TEAMG_SEQUENCE_RECOGNISER_Q2
+  TEAMG_DESIGN_TEAMG_SEQUENCE_RECOGNISER_-Q1
+  TEAMG_DESIGN_TEAMG_SEQUENCE_RECOGNISER_-Q0
+  TEAMG_DESIGN_TEAMG_SEQUENCE_RECOGNISER_N04888 GND
+  TEAMG_DESIGN_TEAMG_SEQUENCE_RECOGNISER_Q2_LOGIC_N04633 VDD NAND41_H 
X_TEAMG_DESIGN_TEAMG_SEQUENCE_RECOGNISER_U28         N01663 GND
+  TEAMG_DESIGN_TEAMG_SEQUENCE_RECOGNISER_N04888 VDD INV1_H 
X_TEAMG_DESIGN_TEAMG_SEQUENCE_RECOGNISER_Q1_LOGIC_U9        
+  TEAMG_DESIGN_TEAMG_SEQUENCE_RECOGNISER_Q0
+  TEAMG_DESIGN_TEAMG_SEQUENCE_RECOGNISER_-Q1
+  TEAMG_DESIGN_TEAMG_SEQUENCE_RECOGNISER_Q2
+  TEAMG_DESIGN_TEAMG_SEQUENCE_RECOGNISER_N06197 GND
+  TEAMG_DESIGN_TEAMG_SEQUENCE_RECOGNISER_Q1_LOGIC_N07811 VDD NAND41_H 
X_TEAMG_DESIGN_TEAMG_SEQUENCE_RECOGNISER_Q1_LOGIC_U18        
+  TEAMG_DESIGN_TEAMG_SEQUENCE_RECOGNISER_Q1_LOGIC_N07811 GND
+  TEAMG_DESIGN_TEAMG_SEQUENCE_RECOGNISER_Q1_LOGIC_N090600 VDD INV1_H 
X_TEAMG_DESIGN_TEAMG_SEQUENCE_RECOGNISER_Q1_LOGIC_U16        
+  TEAMG_DESIGN_TEAMG_SEQUENCE_RECOGNISER_N04888
+  TEAMG_DESIGN_TEAMG_SEQUENCE_RECOGNISER_N06197
+  TEAMG_DESIGN_TEAMG_SEQUENCE_RECOGNISER_-Q2
+  TEAMG_DESIGN_TEAMG_SEQUENCE_RECOGNISER_Q0 GND
+  TEAMG_DESIGN_TEAMG_SEQUENCE_RECOGNISER_Q1_LOGIC_N03941 VDD NAND41_H 
X_TEAMG_DESIGN_TEAMG_SEQUENCE_RECOGNISER_Q1_LOGIC_U17        
+  TEAMG_DESIGN_TEAMG_SEQUENCE_RECOGNISER_-Q0
+  TEAMG_DESIGN_TEAMG_SEQUENCE_RECOGNISER_N06197
+  TEAMG_DESIGN_TEAMG_SEQUENCE_RECOGNISER_Q2
+  TEAMG_DESIGN_TEAMG_SEQUENCE_RECOGNISER_Q1 GND
+  TEAMG_DESIGN_TEAMG_SEQUENCE_RECOGNISER_Q1_LOGIC_N03921 VDD NAND41_H 
X_TEAMG_DESIGN_TEAMG_SEQUENCE_RECOGNISER_Q1_LOGIC_U24        
+  TEAMG_DESIGN_TEAMG_SEQUENCE_RECOGNISER_Q1_LOGIC_N08908
+  TEAMG_DESIGN_TEAMG_SEQUENCE_RECOGNISER_Q1_LOGIC_N08912 GND
+  TEAMG_DESIGN_TEAMG_SEQUENCE_RECOGNISER_Q1_LOGIC_N08904 VDD NAND21_H 
X_TEAMG_DESIGN_TEAMG_SEQUENCE_RECOGNISER_Q1_LOGIC_U25        
+  TEAMG_DESIGN_TEAMG_SEQUENCE_RECOGNISER_Q1_LOGIC_N08904 GND
+  TEAMG_DESIGN_TEAMG_SEQUENCE_RECOGNISER_Q1_LOGIC_N03929 VDD INV1_H 
X_TEAMG_DESIGN_TEAMG_SEQUENCE_RECOGNISER_Q1_LOGIC_U12         SEQ_O_MA
+  TEAMG_DESIGN_TEAMG_SEQUENCE_RECOGNISER_-Q2
+  TEAMG_DESIGN_TEAMG_SEQUENCE_RECOGNISER_-Q1
+  TEAMG_DESIGN_TEAMG_SEQUENCE_RECOGNISER_-Q0 GND
+  TEAMG_DESIGN_TEAMG_SEQUENCE_RECOGNISER_Q1_LOGIC_N04051 VDD NAND41_H 
X_TEAMG_DESIGN_TEAMG_SEQUENCE_RECOGNISER_Q1_LOGIC_U20        
+  TEAMG_DESIGN_TEAMG_SEQUENCE_RECOGNISER_Q1_LOGIC_N090600 N01663 GND
+  TEAMG_DESIGN_TEAMG_SEQUENCE_RECOGNISER_Q1_LOGIC_N08908 VDD NAND21_H 
X_TEAMG_DESIGN_TEAMG_SEQUENCE_RECOGNISER_Q1_LOGIC_U23        
+  TEAMG_DESIGN_TEAMG_SEQUENCE_RECOGNISER_Q1_LOGIC_N08478 N01663 GND
+  TEAMG_DESIGN_TEAMG_SEQUENCE_RECOGNISER_Q1_LOGIC_N08912 VDD NAND21_H 
X_TEAMG_DESIGN_TEAMG_SEQUENCE_RECOGNISER_Q1_LOGIC_U5        
+  TEAMG_DESIGN_TEAMG_SEQUENCE_RECOGNISER_Q1_LOGIC_N03921
+  TEAMG_DESIGN_TEAMG_SEQUENCE_RECOGNISER_Q1_LOGIC_N03949
+  TEAMG_DESIGN_TEAMG_SEQUENCE_RECOGNISER_Q1_LOGIC_N03941
+  TEAMG_DESIGN_TEAMG_SEQUENCE_RECOGNISER_Q1_LOGIC_N03929 GND
+  TEAMG_DESIGN_TEAMG_SEQUENCE_RECOGNISER_D1 VDD NAND41_H 
X_TEAMG_DESIGN_TEAMG_SEQUENCE_RECOGNISER_Q1_LOGIC_U15        
+  TEAMG_DESIGN_TEAMG_SEQUENCE_RECOGNISER_Q1 N01663
+  TEAMG_DESIGN_TEAMG_SEQUENCE_RECOGNISER_N06197
+  TEAMG_DESIGN_TEAMG_SEQUENCE_RECOGNISER_-Q0 GND
+  TEAMG_DESIGN_TEAMG_SEQUENCE_RECOGNISER_Q1_LOGIC_N03949 VDD NAND41_H 
X_TEAMG_DESIGN_TEAMG_SEQUENCE_RECOGNISER_Q1_LOGIC_U21        
+  TEAMG_DESIGN_TEAMG_SEQUENCE_RECOGNISER_Q1_LOGIC_N04051 GND
+  TEAMG_DESIGN_TEAMG_SEQUENCE_RECOGNISER_Q1_LOGIC_N08478 VDD INV1_H 
X_TEAMG_DESIGN_TEAMG_SEQUENCE_RECOGNISER_U24         N01641
+  TEAMG_DESIGN_TEAMG_SEQUENCE_RECOGNISER_D3 GND SEQ_O_MA
+  TEAMG_DESIGN_TEAMG_SEQUENCE_RECOGNISER_N06197 N01667 VDD DFC1_H 
X_TEAMG_DESIGN_TEAMG_SEQUENCE_RECOGNISER_U25         N01641
+  TEAMG_DESIGN_TEAMG_SEQUENCE_RECOGNISER_D2 GND
+  TEAMG_DESIGN_TEAMG_SEQUENCE_RECOGNISER_Q2
+  TEAMG_DESIGN_TEAMG_SEQUENCE_RECOGNISER_-Q2 N01667 VDD DFC1_H 
X_TEAMG_DESIGN_TEAMG_SEQUENCE_RECOGNISER_U26         N01641
+  TEAMG_DESIGN_TEAMG_SEQUENCE_RECOGNISER_D1 GND
+  TEAMG_DESIGN_TEAMG_SEQUENCE_RECOGNISER_Q1
+  TEAMG_DESIGN_TEAMG_SEQUENCE_RECOGNISER_-Q1 N01667 VDD DFC1_H 
X_TEAMG_DESIGN_TEAMG_SEQUENCE_RECOGNISER_Q0_LOGIC_U3        
+  TEAMG_DESIGN_TEAMG_SEQUENCE_RECOGNISER_Q0_LOGIC_N04232
+  TEAMG_DESIGN_TEAMG_SEQUENCE_RECOGNISER_Q0_LOGIC_N04344
+  TEAMG_DESIGN_TEAMG_SEQUENCE_RECOGNISER_Q0_LOGIC_N04259 GND
+  TEAMG_DESIGN_TEAMG_SEQUENCE_RECOGNISER_D0 VDD NAND31_H 
X_TEAMG_DESIGN_TEAMG_SEQUENCE_RECOGNISER_Q0_LOGIC_U9        
+  TEAMG_DESIGN_TEAMG_SEQUENCE_RECOGNISER_N06197 N01663
+  TEAMG_DESIGN_TEAMG_SEQUENCE_RECOGNISER_-Q1
+  TEAMG_DESIGN_TEAMG_SEQUENCE_RECOGNISER_-Q2 GND
+  TEAMG_DESIGN_TEAMG_SEQUENCE_RECOGNISER_Q0_LOGIC_N04344 VDD NAND41_H 
X_TEAMG_DESIGN_TEAMG_SEQUENCE_RECOGNISER_Q0_LOGIC_U8         N01663
+  TEAMG_DESIGN_TEAMG_SEQUENCE_RECOGNISER_N06197
+  TEAMG_DESIGN_TEAMG_SEQUENCE_RECOGNISER_-Q0 GND
+  TEAMG_DESIGN_TEAMG_SEQUENCE_RECOGNISER_Q0_LOGIC_N04232 VDD NAND31_H 
X_TEAMG_DESIGN_TEAMG_SEQUENCE_RECOGNISER_Q0_LOGIC_U10        
+  TEAMG_DESIGN_TEAMG_SEQUENCE_RECOGNISER_N06197
+  TEAMG_DESIGN_TEAMG_SEQUENCE_RECOGNISER_Q2
+  TEAMG_DESIGN_TEAMG_SEQUENCE_RECOGNISER_-Q0
+  TEAMG_DESIGN_TEAMG_SEQUENCE_RECOGNISER_-Q1 GND
+  TEAMG_DESIGN_TEAMG_SEQUENCE_RECOGNISER_Q0_LOGIC_N04259 VDD NAND41_H 
X_TEAMG_DESIGN_TEAMG_SEQUENCE_RECOGNISER_Q3_LOGIC_NOR41_H1         N01663
+  TEAMG_DESIGN_TEAMG_SEQUENCE_RECOGNISER_-Q0
+  TEAMG_DESIGN_TEAMG_SEQUENCE_RECOGNISER_-Q1
+  TEAMG_DESIGN_TEAMG_SEQUENCE_RECOGNISER_-Q2 GND
+  TEAMG_DESIGN_TEAMG_SEQUENCE_RECOGNISER_D3 VDD NOR41_H 
X_TEAMG_DESIGN_TEAMG_RINGOSCILLATORCELL_U42        
+  TEAMG_DESIGN_TEAMG_RINGOSCILLATORCELL_N05970
+  TEAMG_DESIGN_TEAMG_RINGOSCILLATORCELL_N06821 GND RING_O
+  TEAMG_DESIGN_TEAMG_RINGOSCILLATORCELL_N06821 N01637 VDD DFC1_H 
X_TEAMG_DESIGN_TEAMG_RINGOSCILLATORCELL_U31        
+  TEAMG_DESIGN_TEAMG_RINGOSCILLATORCELL_N05041 GND
+  TEAMG_DESIGN_TEAMG_RINGOSCILLATORCELL_N05399 VDD INV1_H 
X_TEAMG_DESIGN_TEAMG_RINGOSCILLATORCELL_U51        
+  TEAMG_DESIGN_TEAMG_RINGOSCILLATORCELL_N111170 GND
+  TEAMG_DESIGN_TEAMG_RINGOSCILLATORCELL_N03216 VDD INV1_H 
X_TEAMG_DESIGN_TEAMG_RINGOSCILLATORCELL_U41        
+  TEAMG_DESIGN_TEAMG_RINGOSCILLATORCELL_N05933
+  TEAMG_DESIGN_TEAMG_RINGOSCILLATORCELL_N05941 GND
+  TEAMG_DESIGN_TEAMG_RINGOSCILLATORCELL_N05970
+  TEAMG_DESIGN_TEAMG_RINGOSCILLATORCELL_N05941 N01637 VDD DFC1_H 
X_TEAMG_DESIGN_TEAMG_RINGOSCILLATORCELL_U49        
+  TEAMG_DESIGN_TEAMG_RINGOSCILLATORCELL_N10401 GND
+  TEAMG_DESIGN_TEAMG_RINGOSCILLATORCELL_N10078 VDD INV1_H 
X_TEAMG_DESIGN_TEAMG_RINGOSCILLATORCELL_U40        
+  TEAMG_DESIGN_TEAMG_RINGOSCILLATORCELL_N05862
+  TEAMG_DESIGN_TEAMG_RINGOSCILLATORCELL_N05870 GND
+  TEAMG_DESIGN_TEAMG_RINGOSCILLATORCELL_N05933
+  TEAMG_DESIGN_TEAMG_RINGOSCILLATORCELL_N05870 N01637 VDD DFC1_H 
X_TEAMG_DESIGN_TEAMG_RINGOSCILLATORCELL_U32        
+  TEAMG_DESIGN_TEAMG_RINGOSCILLATORCELL_N05399 GND
+  TEAMG_DESIGN_TEAMG_RINGOSCILLATORCELL_N05411 VDD INV1_H 
X_TEAMG_DESIGN_TEAMG_RINGOSCILLATORCELL_U38        
+  TEAMG_DESIGN_TEAMG_RINGOSCILLATORCELL_N05720
+  TEAMG_DESIGN_TEAMG_RINGOSCILLATORCELL_N05728 GND
+  TEAMG_DESIGN_TEAMG_RINGOSCILLATORCELL_N05791
+  TEAMG_DESIGN_TEAMG_RINGOSCILLATORCELL_N05728 N01637 VDD DFC1_H 
X_TEAMG_DESIGN_TEAMG_RINGOSCILLATORCELL_U37        
+  TEAMG_DESIGN_TEAMG_RINGOSCILLATORCELL_N05522
+  TEAMG_DESIGN_TEAMG_RINGOSCILLATORCELL_N05534 GND
+  TEAMG_DESIGN_TEAMG_RINGOSCILLATORCELL_N05720
+  TEAMG_DESIGN_TEAMG_RINGOSCILLATORCELL_N05534 N01637 VDD DFC1_H 
X_TEAMG_DESIGN_TEAMG_RINGOSCILLATORCELL_U9        
+  TEAMG_DESIGN_TEAMG_RINGOSCILLATORCELL_N05399
+  TEAMG_DESIGN_TEAMG_RINGOSCILLATORCELL_N02408 GND
+  TEAMG_DESIGN_TEAMG_RINGOSCILLATORCELL_N05522
+  TEAMG_DESIGN_TEAMG_RINGOSCILLATORCELL_N02408 N01637 VDD DFC1_H 
X_TEAMG_DESIGN_TEAMG_RINGOSCILLATORCELL_U50        
+  TEAMG_DESIGN_TEAMG_RINGOSCILLATORCELL_N10078 GND
+  TEAMG_DESIGN_TEAMG_RINGOSCILLATORCELL_N111170 VDD INV1_H 
X_TEAMG_DESIGN_TEAMG_RINGOSCILLATORCELL_U48        
+  TEAMG_DESIGN_TEAMG_RINGOSCILLATORCELL_N114650 GND
+  TEAMG_DESIGN_TEAMG_RINGOSCILLATORCELL_N10401 VDD INV1_H 
X_TEAMG_DESIGN_TEAMG_RINGOSCILLATORCELL_U39        
+  TEAMG_DESIGN_TEAMG_RINGOSCILLATORCELL_N05791
+  TEAMG_DESIGN_TEAMG_RINGOSCILLATORCELL_N05799 GND
+  TEAMG_DESIGN_TEAMG_RINGOSCILLATORCELL_N05862
+  TEAMG_DESIGN_TEAMG_RINGOSCILLATORCELL_N05799 N01637 VDD DFC1_H 
X_TEAMG_DESIGN_TEAMG_RINGOSCILLATORCELL_U33        
+  TEAMG_DESIGN_TEAMG_RINGOSCILLATORCELL_N05411 GND
+  TEAMG_DESIGN_TEAMG_RINGOSCILLATORCELL_N114650 VDD INV1_H 
X_TEAMG_DESIGN_TEAMG_RINGOSCILLATORCELL_U30        
+  TEAMG_DESIGN_TEAMG_RINGOSCILLATORCELL_N05390 GND
+  TEAMG_DESIGN_TEAMG_RINGOSCILLATORCELL_N05041 VDD INV1_H 
X_TEAMG_DESIGN_TEAMG_RINGOSCILLATORCELL_U29        
+  TEAMG_DESIGN_TEAMG_RINGOSCILLATORCELL_N05386 GND
+  TEAMG_DESIGN_TEAMG_RINGOSCILLATORCELL_N05390 VDD INV1_H 
X_TEAMG_DESIGN_TEAMG_RINGOSCILLATORCELL_U28        
+  TEAMG_DESIGN_TEAMG_RINGOSCILLATORCELL_N05382 GND
+  TEAMG_DESIGN_TEAMG_RINGOSCILLATORCELL_N05386 VDD INV1_H 
X_TEAMG_DESIGN_TEAMG_RINGOSCILLATORCELL_U44         N01115
+  TEAMG_DESIGN_TEAMG_RINGOSCILLATORCELL_N03216 GND
+  TEAMG_DESIGN_TEAMG_RINGOSCILLATORCELL_N05382 VDD NAND21_H 
X_TEAMG_DESIGN_TEAMG_SUBTRACTORCELL_FULL_SUBTRACTOR3_TEAMG_HALFSUBTRACTOR0_U2  
+        N01314 GND
+  TEAMG_DESIGN_TEAMG_SUBTRACTORCELL_FULL_SUBTRACTOR3_TEAMG_HALFSUBTRACTOR0_N00168
+  VDD INV1_H 
X_TEAMG_DESIGN_TEAMG_SUBTRACTORCELL_FULL_SUBTRACTOR3_TEAMG_HALFSUBTRACTOR0_U3  
+       
+  TEAMG_DESIGN_TEAMG_SUBTRACTORCELL_FULL_SUBTRACTOR3_TEAMG_HALFSUBTRACTOR0_N00196
+  GND TEAMG_DESIGN_TEAMG_SUBTRACTORCELL_FULL_SUBTRACTOR3_N00142 VDD INV1_H 
X_TEAMG_DESIGN_TEAMG_SUBTRACTORCELL_FULL_SUBTRACTOR3_TEAMG_HALFSUBTRACTOR0_U4  
+       
+  TEAMG_DESIGN_TEAMG_SUBTRACTORCELL_FULL_SUBTRACTOR3_TEAMG_HALFSUBTRACTOR0_N00168
+  N01298 GND
+  TEAMG_DESIGN_TEAMG_SUBTRACTORCELL_FULL_SUBTRACTOR3_TEAMG_HALFSUBTRACTOR0_N00196
+  VDD NAND21_H 
X_TEAMG_DESIGN_TEAMG_SUBTRACTORCELL_FULL_SUBTRACTOR3_TEAMG_HALFSUBTRACTOR0_U1  
+        N01298 N01314 GND
+  TEAMG_DESIGN_TEAMG_SUBTRACTORCELL_FULL_SUBTRACTOR3_N00130 VDD XOR21_H 
X_TEAMG_DESIGN_TEAMG_SUBTRACTORCELL_FULL_SUBTRACTOR3_TEAMG_HALFSUBTRACTOR1_U2  
+        TEAMG_DESIGN_TEAMG_SUBTRACTORCELL_FULL_SUBTRACTOR3_N00130 GND
+  TEAMG_DESIGN_TEAMG_SUBTRACTORCELL_FULL_SUBTRACTOR3_TEAMG_HALFSUBTRACTOR1_N00168
+  VDD INV1_H 
X_TEAMG_DESIGN_TEAMG_SUBTRACTORCELL_FULL_SUBTRACTOR3_TEAMG_HALFSUBTRACTOR1_U3  
+       
+  TEAMG_DESIGN_TEAMG_SUBTRACTORCELL_FULL_SUBTRACTOR3_TEAMG_HALFSUBTRACTOR1_N00196
+  GND TEAMG_DESIGN_TEAMG_SUBTRACTORCELL_FULL_SUBTRACTOR3_N00209 VDD INV1_H 
X_TEAMG_DESIGN_TEAMG_SUBTRACTORCELL_FULL_SUBTRACTOR3_TEAMG_HALFSUBTRACTOR1_U4  
+       
+  TEAMG_DESIGN_TEAMG_SUBTRACTORCELL_FULL_SUBTRACTOR3_TEAMG_HALFSUBTRACTOR1_N00168
+  TEAMG_DESIGN_TEAMG_SUBTRACTORCELL_N00185 GND
+  TEAMG_DESIGN_TEAMG_SUBTRACTORCELL_FULL_SUBTRACTOR3_TEAMG_HALFSUBTRACTOR1_N00196
+  VDD NAND21_H 
X_TEAMG_DESIGN_TEAMG_SUBTRACTORCELL_FULL_SUBTRACTOR3_TEAMG_HALFSUBTRACTOR1_U1  
+        TEAMG_DESIGN_TEAMG_SUBTRACTORCELL_N00185
+  TEAMG_DESIGN_TEAMG_SUBTRACTORCELL_FULL_SUBTRACTOR3_N00130 GND SUB_O_XY3 VDD
+  XOR21_H 
X_TEAMG_DESIGN_TEAMG_SUBTRACTORCELL_FULL_SUBTRACTOR3_U1        
+  TEAMG_DESIGN_TEAMG_SUBTRACTORCELL_FULL_SUBTRACTOR3_N00209
+  TEAMG_DESIGN_TEAMG_SUBTRACTORCELL_FULL_SUBTRACTOR3_N00142 GND SUB_O_BO VDD
+  XOR21_H 
X_TEAMG_DESIGN_TEAMG_SUBTRACTORCELL_FULL_SUBTRACTOR_TEAMG_HALFSUBTRACTOR0_U2   
+       N01633 GND
+  TEAMG_DESIGN_TEAMG_SUBTRACTORCELL_FULL_SUBTRACTOR_TEAMG_HALFSUBTRACTOR0_N00168
+  VDD INV1_H 
X_TEAMG_DESIGN_TEAMG_SUBTRACTORCELL_FULL_SUBTRACTOR_TEAMG_HALFSUBTRACTOR0_U3   
+      
+  TEAMG_DESIGN_TEAMG_SUBTRACTORCELL_FULL_SUBTRACTOR_TEAMG_HALFSUBTRACTOR0_N00196
+  GND TEAMG_DESIGN_TEAMG_SUBTRACTORCELL_FULL_SUBTRACTOR_N00142 VDD INV1_H 
X_TEAMG_DESIGN_TEAMG_SUBTRACTORCELL_FULL_SUBTRACTOR_TEAMG_HALFSUBTRACTOR0_U4   
+      
+  TEAMG_DESIGN_TEAMG_SUBTRACTORCELL_FULL_SUBTRACTOR_TEAMG_HALFSUBTRACTOR0_N00168
+  N01310 GND
+  TEAMG_DESIGN_TEAMG_SUBTRACTORCELL_FULL_SUBTRACTOR_TEAMG_HALFSUBTRACTOR0_N00196
+  VDD NAND21_H 
X_TEAMG_DESIGN_TEAMG_SUBTRACTORCELL_FULL_SUBTRACTOR_TEAMG_HALFSUBTRACTOR0_U1   
+       N01310 N01633 GND
+  TEAMG_DESIGN_TEAMG_SUBTRACTORCELL_FULL_SUBTRACTOR_N00130 VDD XOR21_H 
X_TEAMG_DESIGN_TEAMG_SUBTRACTORCELL_FULL_SUBTRACTOR_TEAMG_HALFSUBTRACTOR1_U2   
+       TEAMG_DESIGN_TEAMG_SUBTRACTORCELL_FULL_SUBTRACTOR_N00130 GND
+  TEAMG_DESIGN_TEAMG_SUBTRACTORCELL_FULL_SUBTRACTOR_TEAMG_HALFSUBTRACTOR1_N00168
+  VDD INV1_H 
X_TEAMG_DESIGN_TEAMG_SUBTRACTORCELL_FULL_SUBTRACTOR_TEAMG_HALFSUBTRACTOR1_U3   
+      
+  TEAMG_DESIGN_TEAMG_SUBTRACTORCELL_FULL_SUBTRACTOR_TEAMG_HALFSUBTRACTOR1_N00196
+  GND TEAMG_DESIGN_TEAMG_SUBTRACTORCELL_FULL_SUBTRACTOR_N00209 VDD INV1_H 
X_TEAMG_DESIGN_TEAMG_SUBTRACTORCELL_FULL_SUBTRACTOR_TEAMG_HALFSUBTRACTOR1_U4   
+      
+  TEAMG_DESIGN_TEAMG_SUBTRACTORCELL_FULL_SUBTRACTOR_TEAMG_HALFSUBTRACTOR1_N00168
+  N01659 GND
+  TEAMG_DESIGN_TEAMG_SUBTRACTORCELL_FULL_SUBTRACTOR_TEAMG_HALFSUBTRACTOR1_N00196
+  VDD NAND21_H 
X_TEAMG_DESIGN_TEAMG_SUBTRACTORCELL_FULL_SUBTRACTOR_TEAMG_HALFSUBTRACTOR1_U1   
+       N01659 TEAMG_DESIGN_TEAMG_SUBTRACTORCELL_FULL_SUBTRACTOR_N00130 GND
+  SUB_O_XY0 VDD XOR21_H 
X_TEAMG_DESIGN_TEAMG_SUBTRACTORCELL_FULL_SUBTRACTOR_U1        
+  TEAMG_DESIGN_TEAMG_SUBTRACTORCELL_FULL_SUBTRACTOR_N00209
+  TEAMG_DESIGN_TEAMG_SUBTRACTORCELL_FULL_SUBTRACTOR_N00142 GND
+  TEAMG_DESIGN_TEAMG_SUBTRACTORCELL_N00135 VDD XOR21_H 
X_TEAMG_DESIGN_TEAMG_SUBTRACTORCELL_FULL_SUBTRACTOR2_TEAMG_HALFSUBTRACTOR0_U2  
+        N01655 GND
+  TEAMG_DESIGN_TEAMG_SUBTRACTORCELL_FULL_SUBTRACTOR2_TEAMG_HALFSUBTRACTOR0_N00168
+  VDD INV1_H 
X_TEAMG_DESIGN_TEAMG_SUBTRACTORCELL_FULL_SUBTRACTOR2_TEAMG_HALFSUBTRACTOR0_U3  
+       
+  TEAMG_DESIGN_TEAMG_SUBTRACTORCELL_FULL_SUBTRACTOR2_TEAMG_HALFSUBTRACTOR0_N00196
+  GND TEAMG_DESIGN_TEAMG_SUBTRACTORCELL_FULL_SUBTRACTOR2_N00142 VDD INV1_H 
X_TEAMG_DESIGN_TEAMG_SUBTRACTORCELL_FULL_SUBTRACTOR2_TEAMG_HALFSUBTRACTOR0_U4  
+       
+  TEAMG_DESIGN_TEAMG_SUBTRACTORCELL_FULL_SUBTRACTOR2_TEAMG_HALFSUBTRACTOR0_N00168
+  N01306 GND
+  TEAMG_DESIGN_TEAMG_SUBTRACTORCELL_FULL_SUBTRACTOR2_TEAMG_HALFSUBTRACTOR0_N00196
+  VDD NAND21_H 
X_TEAMG_DESIGN_TEAMG_SUBTRACTORCELL_FULL_SUBTRACTOR2_TEAMG_HALFSUBTRACTOR0_U1  
+        N01306 N01655 GND
+  TEAMG_DESIGN_TEAMG_SUBTRACTORCELL_FULL_SUBTRACTOR2_N00130 VDD XOR21_H 
X_TEAMG_DESIGN_TEAMG_SUBTRACTORCELL_FULL_SUBTRACTOR2_TEAMG_HALFSUBTRACTOR1_U2  
+        TEAMG_DESIGN_TEAMG_SUBTRACTORCELL_FULL_SUBTRACTOR2_N00130 GND
+  TEAMG_DESIGN_TEAMG_SUBTRACTORCELL_FULL_SUBTRACTOR2_TEAMG_HALFSUBTRACTOR1_N00168
+  VDD INV1_H 
X_TEAMG_DESIGN_TEAMG_SUBTRACTORCELL_FULL_SUBTRACTOR2_TEAMG_HALFSUBTRACTOR1_U3  
+       
+  TEAMG_DESIGN_TEAMG_SUBTRACTORCELL_FULL_SUBTRACTOR2_TEAMG_HALFSUBTRACTOR1_N00196
+  GND TEAMG_DESIGN_TEAMG_SUBTRACTORCELL_FULL_SUBTRACTOR2_N00209 VDD INV1_H 
X_TEAMG_DESIGN_TEAMG_SUBTRACTORCELL_FULL_SUBTRACTOR2_TEAMG_HALFSUBTRACTOR1_U4  
+       
+  TEAMG_DESIGN_TEAMG_SUBTRACTORCELL_FULL_SUBTRACTOR2_TEAMG_HALFSUBTRACTOR1_N00168
+  TEAMG_DESIGN_TEAMG_SUBTRACTORCELL_N00135 GND
+  TEAMG_DESIGN_TEAMG_SUBTRACTORCELL_FULL_SUBTRACTOR2_TEAMG_HALFSUBTRACTOR1_N00196
+  VDD NAND21_H 
X_TEAMG_DESIGN_TEAMG_SUBTRACTORCELL_FULL_SUBTRACTOR2_TEAMG_HALFSUBTRACTOR1_U1  
+        TEAMG_DESIGN_TEAMG_SUBTRACTORCELL_N00135
+  TEAMG_DESIGN_TEAMG_SUBTRACTORCELL_FULL_SUBTRACTOR2_N00130 GND SUB_O_XY1 VDD
+  XOR21_H 
X_TEAMG_DESIGN_TEAMG_SUBTRACTORCELL_FULL_SUBTRACTOR2_U1        
+  TEAMG_DESIGN_TEAMG_SUBTRACTORCELL_FULL_SUBTRACTOR2_N00209
+  TEAMG_DESIGN_TEAMG_SUBTRACTORCELL_FULL_SUBTRACTOR2_N00142 GND
+  TEAMG_DESIGN_TEAMG_SUBTRACTORCELL_N00160 VDD XOR21_H 
X_TEAMG_DESIGN_TEAMG_SUBTRACTORCELL_FULL_SUBTRACTOR1_TEAMG_HALFSUBTRACTOR0_U2  
+        N01318 GND
+  TEAMG_DESIGN_TEAMG_SUBTRACTORCELL_FULL_SUBTRACTOR1_TEAMG_HALFSUBTRACTOR0_N00168
+  VDD INV1_H 
X_TEAMG_DESIGN_TEAMG_SUBTRACTORCELL_FULL_SUBTRACTOR1_TEAMG_HALFSUBTRACTOR0_U3  
+       
+  TEAMG_DESIGN_TEAMG_SUBTRACTORCELL_FULL_SUBTRACTOR1_TEAMG_HALFSUBTRACTOR0_N00196
+  GND TEAMG_DESIGN_TEAMG_SUBTRACTORCELL_FULL_SUBTRACTOR1_N00142 VDD INV1_H 
X_TEAMG_DESIGN_TEAMG_SUBTRACTORCELL_FULL_SUBTRACTOR1_TEAMG_HALFSUBTRACTOR0_U4  
+       
+  TEAMG_DESIGN_TEAMG_SUBTRACTORCELL_FULL_SUBTRACTOR1_TEAMG_HALFSUBTRACTOR0_N00168
+  N01302 GND
+  TEAMG_DESIGN_TEAMG_SUBTRACTORCELL_FULL_SUBTRACTOR1_TEAMG_HALFSUBTRACTOR0_N00196
+  VDD NAND21_H 
X_TEAMG_DESIGN_TEAMG_SUBTRACTORCELL_FULL_SUBTRACTOR1_TEAMG_HALFSUBTRACTOR0_U1  
+        N01302 N01318 GND
+  TEAMG_DESIGN_TEAMG_SUBTRACTORCELL_FULL_SUBTRACTOR1_N00130 VDD XOR21_H 
X_TEAMG_DESIGN_TEAMG_SUBTRACTORCELL_FULL_SUBTRACTOR1_TEAMG_HALFSUBTRACTOR1_U2  
+        TEAMG_DESIGN_TEAMG_SUBTRACTORCELL_FULL_SUBTRACTOR1_N00130 GND
+  TEAMG_DESIGN_TEAMG_SUBTRACTORCELL_FULL_SUBTRACTOR1_TEAMG_HALFSUBTRACTOR1_N00168
+  VDD INV1_H 
X_TEAMG_DESIGN_TEAMG_SUBTRACTORCELL_FULL_SUBTRACTOR1_TEAMG_HALFSUBTRACTOR1_U3  
+       
+  TEAMG_DESIGN_TEAMG_SUBTRACTORCELL_FULL_SUBTRACTOR1_TEAMG_HALFSUBTRACTOR1_N00196
+  GND TEAMG_DESIGN_TEAMG_SUBTRACTORCELL_FULL_SUBTRACTOR1_N00209 VDD INV1_H 
X_TEAMG_DESIGN_TEAMG_SUBTRACTORCELL_FULL_SUBTRACTOR1_TEAMG_HALFSUBTRACTOR1_U4  
+       
+  TEAMG_DESIGN_TEAMG_SUBTRACTORCELL_FULL_SUBTRACTOR1_TEAMG_HALFSUBTRACTOR1_N00168
+  TEAMG_DESIGN_TEAMG_SUBTRACTORCELL_N00160 GND
+  TEAMG_DESIGN_TEAMG_SUBTRACTORCELL_FULL_SUBTRACTOR1_TEAMG_HALFSUBTRACTOR1_N00196
+  VDD NAND21_H 
X_TEAMG_DESIGN_TEAMG_SUBTRACTORCELL_FULL_SUBTRACTOR1_TEAMG_HALFSUBTRACTOR1_U1  
+        TEAMG_DESIGN_TEAMG_SUBTRACTORCELL_N00160
+  TEAMG_DESIGN_TEAMG_SUBTRACTORCELL_FULL_SUBTRACTOR1_N00130 GND SUB_O_XY2 VDD
+  XOR21_H 
X_TEAMG_DESIGN_TEAMG_SUBTRACTORCELL_FULL_SUBTRACTOR1_U1        
+  TEAMG_DESIGN_TEAMG_SUBTRACTORCELL_FULL_SUBTRACTOR1_N00209
+  TEAMG_DESIGN_TEAMG_SUBTRACTORCELL_FULL_SUBTRACTOR1_N00142 GND
+  TEAMG_DESIGN_TEAMG_SUBTRACTORCELL_N00185 VDD XOR21_H 
U_INV_I         STIM(1,1)
+ $G_DPWR $G_DGND
+ N00641 
+ IO_STM
+ IO_LEVEL=0
+  0s 0  
U_RING_EN         STIM(1,1)
+ $G_DPWR $G_DGND
+ N01115 
+ IO_STM
+ IO_LEVEL=0
+  0s 0  
+ 5n 1  
+ 10n 0  
U_MULTI_Y0         STIM(1,1)
+ $G_DPWR $G_DGND
+ N01186 
+ IO_STM
+ IO_LEVEL=0
+  0s 0  
U_MULTI_Y1         STIM(1,1)
+ $G_DPWR $G_DGND
+ N01132 
+ IO_STM
+ IO_LEVEL=0
+  0s 0  
U_MULTI_Y2         STIM(1,1)
+ $G_DPWR $G_DGND
+ N01144 
+ IO_STM
+ IO_LEVEL=0
+  0s 0  
U_MULTI_Y3         STIM(1,1)
+ $G_DPWR $G_DGND
+ N01156 
+ IO_STM
+ IO_LEVEL=0
+  0s 0  
U_MULTI_X0         STIM(1,1)
+ $G_DPWR $G_DGND
+ N01274 
+ IO_STM
+ IO_LEVEL=0
+  0s 0  
U_MULTI_X1         STIM(1,1)
+ $G_DPWR $G_DGND
+ N01282 
+ IO_STM
+ IO_LEVEL=0
+  0s 0  
U_MULTI_X2         STIM(1,1)
+ $G_DPWR $G_DGND
+ N01286 
+ IO_STM
+ IO_LEVEL=0
+  0s 0  
U_MULTI_X3         STIM(1,1)
+ $G_DPWR $G_DGND
+ N01290 
+ IO_STM
+ IO_LEVEL=0
+  0s 0  
U_MULTI_IS         STIM(1,1)
+ $G_DPWR $G_DGND
+ N01294 
+ IO_STM
+ IO_LEVEL=0
+  0s 0  
U_SUB_Y3         STIM(1,1)
+ $G_DPWR $G_DGND
+ N01298 
+ IO_STM
+ IO_LEVEL=0
+  0s 0  
U_SUB_Y2         STIM(1,1)
+ $G_DPWR $G_DGND
+ N01302 
+ IO_STM
+ IO_LEVEL=0
+  0s 0  
U_SUB_Y1         STIM(1,1)
+ $G_DPWR $G_DGND
+ N01306 
+ IO_STM
+ IO_LEVEL=0
+  0s 0  
U_SUB_Y0         STIM(1,1)
+ $G_DPWR $G_DGND
+ N01310 
+ IO_STM
+ IO_LEVEL=0
+  0s 0  
U_SUB_X3         STIM(1,1)
+ $G_DPWR $G_DGND
+ N01314 
+ IO_STM
+ IO_LEVEL=0
+  0s 0  
U_SUB_X2         STIM(1,1)
+ $G_DPWR $G_DGND
+ N01318 
+ IO_STM
+ IO_LEVEL=0
+  0s 0  
U_SUB_X0         STIM(1,1)
+ $G_DPWR $G_DGND
+ N01633 
+ IO_STM
+ IO_LEVEL=0
+  0s 0  
U_SUB_X1         STIM(1,1)
+ $G_DPWR $G_DGND
+ N01655 
+ IO_STM
+ IO_LEVEL=0
+  0s 0  
U_SUB_BI         STIM(1,1)
+ $G_DPWR $G_DGND
+ N01659 
+ IO_STM
+ IO_LEVEL=0
+  0s 0  
U_RING_NR         STIM(1,1)
+ $G_DPWR $G_DGND
+ N01637 
+ IO_STM
+ IO_LEVEL=0
+  0s 0  
U_SEQ_CLK         STIM(1,1) $G_DPWR $G_DGND N01641 IO_STM IO_LEVEL=0 
+ 0 0
+ +5nS 1
+REPEAT FOREVER
+ +5nS 0
+  +5nS 1
+ ENDREPEAT
U_SEQ_DI         STIM(1,1)
+ VDD GND
+ N01663 
+ IO_STM
+ IO_LEVEL=0
+  0n 0  
+ 2.5n 1  
+ 12.5 0  
+ 22.5n 1 
--$
ERROR(ORPSIM-16256): Transitions must be in ascending time order
+ 32.5n 1  
+ 42.5n 0  
+ 52.5n 1  
+ 62.5n 1  
+ 72.5n 0  
+ 82.5n 1  
+ 92.5n 0  
U_SEQ_NR         STIM(1,1)
+ VDD GND
+ N01667 
+ IO_STM
+ IO_LEVEL=0
+  0s 1  
+ 1.25n 0  
+ 2n 1  

**** RESUMING TEAMG_DESIGN_SIM.cir ****
.END
