
**** 10/15/15 18:50:39 ***** PSpice 16.6.0 (October 2012) ***** ID# 0 ********

 ** Profile: "Newbench-SIMIT"  [ \\ugsamba\gpeh1g14\D2ext\ringoscillator\ringoscillator-pspicefiles\newbench\simit.sim ] 


 ****     CIRCUIT DESCRIPTION


******************************************************************************




** Creating circuit file "SIMIT.cir" 
** WARNING: THIS AUTOMATICALLY GENERATED FILE MAY BE OVERWRITTEN BY SUBSEQUENT SIMULATIONS

*Libraries: 
* Profile Libraries :
* Local Libraries :
.LIB "//ugsamba/gpeh1g14/D2ext/d2git/libraries/schematic/d2.lib" 
* From [PSPICE NETLIST] section of C:\Users\gpeh1g14\AppData\Local\Temp\16.6.0/PSpice.ini file:
-----------------------------------------------------------------$
ERROR(ORPSIM-16276): Can't find library
.lib "C:\Cadence\SPB_16.6\tools\pspice\library\nom.lib" 

*Analysis directives: 
.TRAN  0 1000ns 0 
.OPTIONS ADVCONV
.PROBE64 V(alias(*)) I(alias(*)) W(alias(*)) D(alias(*)) NOISE(alias(*)) 
.INC "..\Newbench.net" 



**** INCLUDING Newbench.net ****
* source RINGOSCILLATOR
U_Stim         STIM(1,1)
+ $G_DPWR $G_DGND
+ N02587 
+ IO_STM
+ IO_LEVEL=0
+  0s 0  
+ 10ns 1  
V_V2         GND 0 0Vdc
X_oscill_U37         oscill_N05522 oscill_N05534 GND oscill_N05720
+  oscill_N05534 oscill_N05983 VDD DFC1_H 
X_oscill_U29         oscill_N05386 GND oscill_N05390 VDD INV1_H 
X_oscill_U31         oscill_N05041 GND oscill_N05399 VDD INV1_H 
X_oscill_U38         oscill_N05720 oscill_N05728 GND oscill_N05791
+  oscill_N05728 oscill_N05983 VDD DFC1_H 
X_oscill_U12         GND oscill_N05983 VDD TIE1_H 
X_oscill_U32         oscill_N05399 GND oscill_N05411 VDD INV1_H 
X_oscill_U34         oscill_N05415 GND oscill_N05419 VDD INV1_H 
X_oscill_U9         oscill_N05399 oscill_N02408 GND oscill_N05522 oscill_N02408
+  oscill_N05983 VDD DFC1_H 
X_oscill_U39         oscill_N05791 oscill_N05799 GND oscill_N05862
+  oscill_N05799 oscill_N05983 VDD DFC1_H 
X_oscill_U28         oscill_N05382 GND oscill_N05386 VDD INV1_H 
X_oscill_U40         oscill_N05862 oscill_N05870 GND oscill_N05933
+  oscill_N05870 oscill_N05983 VDD DFC1_H 
X_oscill_U30         oscill_N05390 GND oscill_N05041 VDD INV1_H 
X_oscill_U41         oscill_N05933 oscill_N05941 GND oscill_N05970
+  oscill_N05941 oscill_N05983 VDD DFC1_H 
X_oscill_U33         oscill_N05411 GND oscill_N05415 VDD INV1_H 
X_oscill_U27         oscill_N049450 GND oscill_N05382 VDD INV1_H 
X_oscill_U35         oscill_N05419 GND oscill_N051671 VDD INV1_H 
X_oscill_U42         oscill_N05970 oscill_N06821 GND N02593 oscill_N06821
+  oscill_N05983 VDD DFC1_H 
X_oscill_U43         oscill_N051671 GND oscill_N080411 VDD INV1_H 
X_oscill_U44         N02587 oscill_N03216 GND oscill_N08110 VDD NAND21_H 
X_oscill_U45         oscill_N080411 GND oscill_N082471 VDD INV1_H 
X_oscill_U46         oscill_N082471 GND oscill_N03216 VDD INV10_H 
X_oscill_U47         oscill_N098110 GND oscill_N049450 VDD INV10_H 
X_oscill_U48         oscill_N08110 GND oscill_N098110 VDD INV10_H 
V_V1         VDD 0 3.3Vdc

**** RESUMING SIMIT.cir ****
.END
