
**** 10/07/15 21:08:27 ***** PSpice 16.6.0 (October 2012) ***** ID# 0 ********

 ** Profile: "TESTBENCH-HALFADDER_SIMULATION"  [ H:\D2\multiplier\multiplier-PSpiceFiles\TESTBENCH\HALFADDER_SIMULATION.sim ] 


 ****     CIRCUIT DESCRIPTION


******************************************************************************




** Creating circuit file "HALFADDER_SIMULATION.cir" 
** WARNING: THIS AUTOMATICALLY GENERATED FILE MAY BE OVERWRITTEN BY SUBSEQUENT SIMULATIONS

*Libraries: 
* Profile Libraries :
* Local Libraries :
.LIB "H:/D2/libraries/schematic/d2.lib" 
* From [PSPICE NETLIST] section of d:\Users\gpeh1g14\AppData\Local\Temp\54\16.6.0/PSpice.ini file:
.lib "nom.lib" 

*Analysis directives: 
.TRAN  0 100ns 0 
.OPTIONS ADVCONV
.PROBE64 V(alias(*)) I(alias(*)) W(alias(*)) D(alias(*)) NOISE(alias(*)) 
.INC "..\TESTBENCH.net" 



**** INCLUDING TESTBENCH.net ****
* source MULTIPLIER
V_V1         VDD 0 3.3Vdc
V_V2         GND 0 0Vdc
X_HALFADDER0_U4         A B GND HALFADDER0_N00228 VDD NAND21_H 
X_HALFADDER0_U2         HALFADDER0_N00228 GND CARRY VDD INV1_H 
X_HALFADDER0_U3         A B GND SUM VDD XOR21_H 
U_B         STIM(1,1)
+ VDD GND
+ B 
+ IO_STM
+ IO_LEVEL=0
+  0s 0  
+ 20n 1  
+ 50n 0  
+ 70n 1 
U_A         STIM(1,1)
+ VDD GND
+ A 
+ IO_STM
+ IO_LEVEL=0
+  0s 0  
+ 10n 1  
+ 30n 0  
+ 60n 1 
+ 90n 0  

**** RESUMING HALFADDER_SIMULATION.cir ****
.END


**** Generated AtoD and DtoA Interfaces ****

*
* Analog/Digital interface for node B
*
* Moving U_B:OUT1 from analog node B to new digital node B$DtoA
X$B_DtoA1
+ B$DtoA
+ B
+ VDD
+ GND
+ DtoA_STM
+       PARAMS: DRVH=   0      DRVL=   0      CAPACITANCE=   0     
*
* Analog/Digital interface for node A
*
* Moving U_A:OUT1 from analog node A to new digital node A$DtoA
X$A_DtoA1
+ A$DtoA
+ A
+ VDD
+ GND
+ DtoA_STM
+       PARAMS: DRVH=   0      DRVL=   0      CAPACITANCE=   0     
*
* Analog/Digital interface power supply subcircuits
*
X$DIGIFPWR 0 DIGIFPWR


INFO(ORPSIM-15454): Model MODP: Using BSIM VERSION 3.1 or lower

INFO(ORPSIM-15454): Model MODN: Using BSIM VERSION 3.1 or lower

**** 10/07/15 21:08:27 ***** PSpice 16.6.0 (October 2012) ***** ID# 0 ********

 ** Profile: "TESTBENCH-HALFADDER_SIMULATION"  [ H:\D2\multiplier\multiplier-PSpiceFiles\TESTBENCH\HALFADDER_SIMULATION.sim ] 


 ****     MOSFET MODEL PARAMETERS


******************************************************************************




               MODP            MODN            
               PMOS            NMOS            
       LEVEL    7               7            
           L  100.000000E-06  100.000000E-06 
           W  100.000000E-06  100.000000E-06 
         VTO    -.6915           .4979       
          KP  267.202200E-06  273.516300E-06 
       GAMMA    0               0            
      LAMBDA    0               0            
         RSH  129              70            
          IS    0               0            
          JS   90.000000E-06   10.000000E-06 
          PB    1.02             .69         
        PBSW    1.02             .69         
          CJ    1.360000E-03  940.000000E-06 
        CJSW  320.000000E-12  250.000000E-12 
          MJ     .56             .34         
        MJSW     .43             .23         
        CGSO   86.000000E-12  120.000000E-12 
        CGDO   86.000000E-12  130.000000E-12 
        CGBO  110.000000E-12  110.000000E-12 
         TOX    7.754000E-09    7.575000E-09 
          XJ  300.000000E-09  300.000000E-09 
       UCRIT   10.000000E+03   10.000000E+03 
       DELTA     .01             .01442      
          KF    8.500000E-27    5.100000E-27 
          AF    1.48            1.36         
      DIOMOD    2               2            
          K1     .59959          .50296      
          K2    -.06038          .033985     
        LETA    0               0            
        WETA    0               0            
          U0  148.2           475.8          
       XPART    1               1            
        VTH0    -.6915           .4979       
          K3   11.03           -1.136        
          W0  100.000000E-12  267.300000E-09 
         NLX  177.000000E-09  188.800000E-09 
        DVT0    1.65           50            
        DVT1     .3868          1.039        
          UA  539.400000E-12    4.705000E-12 
          UB    1.053000E-18    2.137000E-18 
          UC   10.000000E-21   10.000000E-21 
        VSAT  115.800000E+03  133.800000E+03 
        RDSW    1.033000E+03  344.9          
        VOFF    -.117           -.08925      
     NFACTOR    1.214            .4136       
        CDSC    2.589000E-03    0            
        PCLM    3.184            .6948       
      PDIBL1  100.000000E-06     .3571       
      PDIBL2   10.000000E-21    2.065000E-03 
       DROUT     .5              .5          
      PSCBE1    5.000000E+09  351.800000E+06 
      PSCBE2  100.000000E-06   74.910000E-06 
          A0     .585           2.541        
          A1    0               0            
          A2    1               1            
       NPEAK   92.400000E+15  261.100000E+15 
         LDD    0               0            
        LITL   83.538020E-09   82.568160E-09 
         KT1    -.5403          -.3302       
         UA1    0               0            
         UB1    0               0            
         UC1    0               0            
        KETA    -.0144           .02032      
        ETA0     .248            .01415      
        ETAB   -3.917000E-03    -.1221       
         K3B    -.758           -.4399       
        DVT2     .01659        -8.375000E-03 
       CDSCB  294.300000E-06    1.500000E-03 
         CIT                  444.100000E-06 
        DSUB     .5              .5          
         UTE   -1.3            -1.8          
      MOBMOD    1               1            
      NOIMOD    3               3            
       CDSCD  437.000000E-06    1.000000E-03 
         AGS     .2468           .2408       
       DVT0W     .1879           .1089       
       DVT1W   73.350000E+03   66.710000E+03 
       DVT2W   -6.312000E-03    -.01352      
        PRWG     .1477          0            
        PRWB    -.09731         -.2416       
     PDIBLCB    1                .3222       
          B0   88.320000E-09    4.301000E-09 
        CGSL  108.000000E-12  131.000000E-12 
        CGDL  108.000000E-12  131.000000E-12 
         CLC    1.000000E-15    1.000000E-15 
        LINT  -71.300000E-09  -50.050000E-09 
        WINT   34.490000E-09   94.030000E-09 
          WW  189.400000E-18  -12.970000E-15 
         WWN    1.04                         
         WWL   -1.981000E-21   -9.411000E-21 
         DLC   24.500000E-09   30.000000E-09 
         DWC   34.490000E-09   94.030000E-09 
          CF    0               0            
        NOIA    1.520000E+18   17.300000E+18 
        NOIB    7.750000E+03   70.000000E+03 
        NOIC  500.000000E-15 -564.000000E-15 
         VTM     .025864         .025864     
     VERSION    3.1             3.1          
       PBSWG    1.02             .69         
       MJSWG     .43             .23         
       CJSWG  320.000000E-12  250.000000E-12 
       JTSCD   90.000000E-06   10.000000E-06 


**** 10/07/15 21:08:27 ***** PSpice 16.6.0 (October 2012) ***** ID# 0 ********

 ** Profile: "TESTBENCH-HALFADDER_SIMULATION"  [ H:\D2\multiplier\multiplier-PSpiceFiles\TESTBENCH\HALFADDER_SIMULATION.sim ] 


 ****     Digital Input MODEL PARAMETERS


******************************************************************************




               DINSTM          
      S0NAME 0               
       S0TSW  500.000000E-12 
       S0RLO     .5          
       S0RHI    1.000000E+03 
      S1NAME 1               
       S1TSW  500.000000E-12 
       S1RLO    1.000000E+03 
       S1RHI     .5          
      S2NAME X               
       S2TSW  500.000000E-12 
       S2RLO     .429        
       S2RHI    1.16         
      S3NAME R               
       S3TSW  500.000000E-12 
       S3RLO     .429        
       S3RHI    1.16         
      S4NAME F               
       S4TSW  500.000000E-12 
       S4RLO     .429        
       S4RHI    1.16         
      S5NAME Z               
       S5TSW  500.000000E-12 
       S5RLO    1.000000E+06 
       S5RHI    1.000000E+06 


**** 10/07/15 21:08:27 ***** PSpice 16.6.0 (October 2012) ***** ID# 0 ********

 ** Profile: "TESTBENCH-HALFADDER_SIMULATION"  [ H:\D2\multiplier\multiplier-PSpiceFiles\TESTBENCH\HALFADDER_SIMULATION.sim ] 


 ****     Digital IO  MODEL PARAMETERS


******************************************************************************




               IO_STM          
        DRVL    0            
        DRVH    0            
       DtoA1 DtoA_STM        
       DtoA2 DtoA_STM        
       DtoA3 DtoA_STM        
       DtoA4 DtoA_STM        
       TPWRT  100.000000E+03 


**** 10/07/15 21:08:27 ***** PSpice 16.6.0 (October 2012) ***** ID# 0 ********

 ** Profile: "TESTBENCH-HALFADDER_SIMULATION"  [ H:\D2\multiplier\multiplier-PSpiceFiles\TESTBENCH\HALFADDER_SIMULATION.sim ] 


 ****     INITIAL TRANSIENT SOLUTION       TEMPERATURE =   27.000 DEG C


******************************************************************************



 NODE   VOLTAGE     NODE   VOLTAGE     NODE   VOLTAGE     NODE   VOLTAGE


(    A)     .0016  (    B)     .0016  (  GND)    0.0000  (  SUM) 11.13E-09      

(  VDD)    3.3000  (CARRY) 6.134E-09  ($G_DGND)    0.0000                       

($G_DPWR)    5.0000                   (HALFADDER0_N00228)    3.3000             

(X_HALFADDER0_U3.X1._net1)    3.3000  (X_HALFADDER0_U3.X1._net3)    3.3000      

(X_HALFADDER0_U4.X1._net1)     .0191  (X_HALFADDER0_U3.X1._net23)    3.3000     

(X_HALFADDER0_U3.X1._net29) 4.033E-09 



 DGTL NODE : STATE  DGTL NODE : STATE  DGTL NODE : STATE  DGTL NODE : STATE


(  A$DtoA) : 0     (  B$DtoA) : 0     




    VOLTAGE SOURCE CURRENTS
    NAME         CURRENT

    V_V1        -6.597E-03
    V_V2         6.597E-03
    X$DIGIFPWR.VDPWR  -5.000E-06
    X$DIGIFPWR.VDGND  -5.000E-06

    TOTAL POWER DISSIPATION   2.18E-02  WATTS



          JOB CONCLUDED

**** 10/07/15 21:08:27 ***** PSpice 16.6.0 (October 2012) ***** ID# 0 ********

 ** Profile: "TESTBENCH-HALFADDER_SIMULATION"  [ H:\D2\multiplier\multiplier-PSpiceFiles\TESTBENCH\HALFADDER_SIMULATION.sim ] 


 ****     JOB STATISTICS SUMMARY


******************************************************************************



  Total job time (using Solver 1)   =         .17
